


 33 35  0  0  0  0  0  0  0  0999 V2000
   -9.6471    4.9048  -18.6632 C   0  0  0  0  0  0  0  0  0  0  0  0
   -9.1344    4.0386  -17.9029 O   0  0  0  0  0  0  0  0  0  0  0  0
  -10.4332    4.4901  -19.7904 N   0  0  0  0  0  0  0  0  0  0  0  0
  -11.0640    5.1893  -20.2428 H   0  0  0  0  0  0  0  0  0  0  0  0
  -11.7589    6.9577  -17.4242 C   0  0  0  0  0  0  0  0  0  0  0  0
  -10.3526    7.2369  -17.8421 C   0  0  0  0  0  0  0  0  0  0  0  0
   -9.7854    8.4182  -17.7718 O   0  0  0  0  0  0  0  0  0  0  0  0
   -8.5594    8.3826  -18.2075 N   0  0  0  0  0  0  0  0  0  0  0  0
   -8.3107    7.1124  -18.5833 C   0  0  0  0  0  0  0  0  0  0  0  0
   -9.4434    6.3399  -18.3724 C   0  0  0  0  0  0  0  0  0  0  0  0
   -6.9961    6.6555  -19.0749 C   0  0  0  0  0  0  0  0  0  0  0  0
   -6.7379    6.5687  -20.4605 C   0  0  0  0  0  0  0  0  0  0  0  0
   -7.9870    6.8964  -21.6583 Cl  0  0  0  0  0  0  0  0  0  0  0  0
   -5.4714    6.1805  -20.9127 C   0  0  0  0  0  0  0  0  0  0  0  0
   -4.4634    5.8692  -20.0006 C   0  0  0  0  0  0  0  0  0  0  0  0
   -4.7135    5.9369  -18.6295 C   0  0  0  0  0  0  0  0  0  0  0  0
   -5.9746    6.3248  -18.1599 C   0  0  0  0  0  0  0  0  0  0  0  0
   -6.2236    6.4351  -16.4206 Cl  0  0  0  0  0  0  0  0  0  0  0  0
  -10.4211    3.1102  -20.2862 C   0  0  0  0  0  0  0  0  0  0  0  0
  -11.8485    2.6521  -20.6545 C   0  0  0  0  0  0  0  0  0  0  0  0
  -12.0631    1.2653  -20.2197 N   0  0  0  0  0  0  0  0  0  0  0  0
  -11.8077    0.3855  -21.3609 C   0  0  0  0  0  0  0  0  0  0  0  0
  -12.4370    1.0119  -22.6224 C   0  0  0  0  0  0  0  0  0  0  0  0
  -13.9597    0.7963  -22.7303 C   0  0  0  0  0  0  0  0  0  0  0  0
  -11.7482    0.4979  -23.8978 C   0  0  0  0  0  0  0  0  0  0  0  0
  -12.1309    2.7938  -22.4606 S   0  0  0  0  0  0  0  0  0  0  0  0
  -13.0640    1.1724  -19.9260 H   0  0  0  0  0  0  0  0  0  0  0  0
  -12.2491   -1.0336  -21.0735 C   0  0  0  0  0  0  0  0  0  0  0  0
  -13.2972   -1.2825  -20.1914 O   0  0  0  0  0  0  0  0  0  0  0  0
  -11.6851   -2.0061  -21.6411 O   0  0  0  0  0  0  0  0  0  0  0  0
  -13.7726   -0.5308  -19.7072 H   0  0  0  0  0  0  0  0  0  0  0  0
   -9.5197    3.0318  -21.4891 C   0  0  0  0  0  0  0  0  0  0  0  0
   -8.6666    3.8834  -21.6797 O   0  0  0  0  0  0  0  0  0  0  0  0
  1 10  1  0  0  0
  1  2  2  0  0  0
  1  3  1  0  0  0
  3 19  1  0  0  0
  3  4  1  0  0  0
  5  6  1  0  0  0
  6  7  1  0  0  0
  6 10  2  0  0  0
  7  8  1  0  0  0
  8  9  2  0  0  0
  9 10  1  0  0  0
  9 11  1  0  0  0
 11 12  2  0  0  0
 11 17  1  0  0  0
 12 13  1  0  0  0
 12 14  1  0  0  0
 14 15  2  0  0  0
 15 16  1  0  0  0
 16 17  2  0  0  0
 17 18  1  0  0  0
 19 32  1  0  0  0
 19 20  1  0  0  0
 20 21  1  0  0  0
 20 26  1  0  0  0
 21 22  1  0  0  0
 21 27  1  0  0  0
 22 28  1  0  0  0
 22 23  1  0  0  0
 23 24  1  0  0  0
 23 25  1  0  0  0
 23 26  1  0  0  0
 28 29  1  0  0  0
 28 30  2  0  0  0
 29 31  1  0  0  0
 32 33  2  0  0  0
M  END
> <COMPND>
../0-casp/USpIc4.pdb

> <AUTHOR>
GENERATED BY OPEN BABEL 3.1.0

> <MASTER>
        0    0    0    0    0    0    0    0   33    0   33    0

> <minimizedAffinity>
-4.33317

> <CNNscore>
0.4806870818

> <CNNaffinity>
4.6105360985

> <CNN_VS>
2.2162251472

> <CNNaffinity_variance>
0.1988076717

$$$$



 33 35  0  0  0  0  0  0  0  0999 V2000
  -14.4406   -3.2883  -15.8105 C   0  0  0  0  0  0  0  0  0  0  0  0
  -13.2471   -3.3432  -16.2151 O   0  0  0  0  0  0  0  0  0  0  0  0
  -14.7150   -2.9836  -14.4349 N   0  0  0  0  0  0  0  0  0  0  0  0
  -15.6794   -2.6772  -14.1748 H   0  0  0  0  0  0  0  0  0  0  0  0
  -16.8314   -5.3909  -15.5415 C   0  0  0  0  0  0  0  0  0  0  0  0
  -16.5790   -4.4349  -16.6607 C   0  0  0  0  0  0  0  0  0  0  0  0
  -17.3271   -4.3471  -17.7354 O   0  0  0  0  0  0  0  0  0  0  0  0
  -16.8781   -3.4393  -18.5531 N   0  0  0  0  0  0  0  0  0  0  0  0
  -15.7787   -2.9052  -17.9850 C   0  0  0  0  0  0  0  0  0  0  0  0
  -15.5440   -3.5238  -16.7658 C   0  0  0  0  0  0  0  0  0  0  0  0
  -15.0185   -1.7900  -18.5824 C   0  0  0  0  0  0  0  0  0  0  0  0
  -15.3181   -0.4527  -18.2421 C   0  0  0  0  0  0  0  0  0  0  0  0
  -16.6644   -0.0456  -17.1820 Cl  0  0  0  0  0  0  0  0  0  0  0  0
  -14.5574    0.5925  -18.7788 C   0  0  0  0  0  0  0  0  0  0  0  0
  -13.5087    0.3208  -19.6570 C   0  0  0  0  0  0  0  0  0  0  0  0
  -13.2149   -0.9964  -20.0116 C   0  0  0  0  0  0  0  0  0  0  0  0
  -13.9651   -2.0542  -19.4828 C   0  0  0  0  0  0  0  0  0  0  0  0
  -13.5247   -3.6992  -19.9295 Cl  0  0  0  0  0  0  0  0  0  0  0  0
  -13.6761   -3.0332  -13.4014 C   0  0  0  0  0  0  0  0  0  0  0  0
  -13.6261   -1.7049  -12.6163 C   0  0  0  0  0  0  0  0  0  0  0  0
  -14.9881   -1.2346  -12.3299 N   0  0  0  0  0  0  0  0  0  0  0  0
  -15.3615   -0.2656  -13.3611 C   0  0  0  0  0  0  0  0  0  0  0  0
  -14.1578    0.6599  -13.6333 C   0  0  0  0  0  0  0  0  0  0  0  0
  -13.9775    1.7715  -12.5803 C   0  0  0  0  0  0  0  0  0  0  0  0
  -14.2452    1.2832  -15.0365 C   0  0  0  0  0  0  0  0  0  0  0  0
  -12.7066   -0.4280  -13.5574 S   0  0  0  0  0  0  0  0  0  0  0  0
  -14.9742   -0.7607  -11.3962 H   0  0  0  0  0  0  0  0  0  0  0  0
  -16.6436    0.4551  -13.0030 C   0  0  0  0  0  0  0  0  0  0  0  0
  -17.4023    1.0793  -13.9895 O   0  0  0  0  0  0  0  0  0  0  0  0
  -17.0487    0.4854  -11.8110 O   0  0  0  0  0  0  0  0  0  0  0  0
  -17.1092    1.0864  -14.9588 H   0  0  0  0  0  0  0  0  0  0  0  0
  -13.9677   -4.1801  -12.4712 C   0  0  0  0  0  0  0  0  0  0  0  0
  -13.1585   -4.5058  -11.6178 O   0  0  0  0  0  0  0  0  0  0  0  0
  1 10  1  0  0  0
  1  2  2  0  0  0
  1  3  1  0  0  0
  3 19  1  0  0  0
  3  4  1  0  0  0
  5  6  1  0  0  0
  6  7  1  0  0  0
  6 10  2  0  0  0
  7  8  1  0  0  0
  8  9  2  0  0  0
  9 10  1  0  0  0
  9 11  1  0  0  0
 11 12  2  0  0  0
 11 17  1  0  0  0
 12 13  1  0  0  0
 12 14  1  0  0  0
 14 15  2  0  0  0
 15 16  1  0  0  0
 16 17  2  0  0  0
 17 18  1  0  0  0
 19 32  1  0  0  0
 19 20  1  0  0  0
 20 21  1  0  0  0
 20 26  1  0  0  0
 21 22  1  0  0  0
 21 27  1  0  0  0
 22 28  1  0  0  0
 22 23  1  0  0  0
 23 24  1  0  0  0
 23 25  1  0  0  0
 23 26  1  0  0  0
 28 29  1  0  0  0
 28 30  2  0  0  0
 29 31  1  0  0  0
 32 33  2  0  0  0
M  END
> <COMPND>
../0-casp/USpIc4.pdb

> <AUTHOR>
GENERATED BY OPEN BABEL 3.1.0

> <MASTER>
        0    0    0    0    0    0    0    0   33    0   33    0

> <minimizedAffinity>
-4.65720

> <CNNscore>
0.4747941494

> <CNNaffinity>
5.1728148460

> <CNN_VS>
2.4560222626

> <CNNaffinity_variance>
0.1136936545

$$$$



 33 35  0  0  0  0  0  0  0  0999 V2000
  -12.5921    4.4435  -13.0052 C   0  0  0  0  0  0  0  0  0  0  0  0
  -11.8408    3.5286  -13.4408 O   0  0  0  0  0  0  0  0  0  0  0  0
  -13.0907    5.4463  -13.9031 N   0  0  0  0  0  0  0  0  0  0  0  0
  -13.9079    6.0234  -13.6020 H   0  0  0  0  0  0  0  0  0  0  0  0
  -10.8375    5.5036  -10.5543 C   0  0  0  0  0  0  0  0  0  0  0  0
  -12.2078    4.9119  -10.5065 C   0  0  0  0  0  0  0  0  0  0  0  0
  -12.8887    4.7224   -9.4007 O   0  0  0  0  0  0  0  0  0  0  0  0
  -14.0489    4.1848   -9.6441 N   0  0  0  0  0  0  0  0  0  0  0  0
  -14.1322    4.0126  -10.9783 C   0  0  0  0  0  0  0  0  0  0  0  0
  -12.9623    4.4608  -11.5741 C   0  0  0  0  0  0  0  0  0  0  0  0
  -15.3337    3.4848  -11.6537 C   0  0  0  0  0  0  0  0  0  0  0  0
  -16.4809    4.2925  -11.8140 C   0  0  0  0  0  0  0  0  0  0  0  0
  -16.5746    5.9145  -11.1337 Cl  0  0  0  0  0  0  0  0  0  0  0  0
  -17.5956    3.7957  -12.4992 C   0  0  0  0  0  0  0  0  0  0  0  0
  -17.5834    2.5011  -13.0177 C   0  0  0  0  0  0  0  0  0  0  0  0
  -16.4605    1.6897  -12.8509 C   0  0  0  0  0  0  0  0  0  0  0  0
  -15.3361    2.1716  -12.1691 C   0  0  0  0  0  0  0  0  0  0  0  0
  -13.9302    1.1218  -12.0244 Cl  0  0  0  0  0  0  0  0  0  0  0  0
  -12.5286    5.6446  -15.2428 C   0  0  0  0  0  0  0  0  0  0  0  0
  -13.3655    4.8933  -16.3004 C   0  0  0  0  0  0  0  0  0  0  0  0
  -12.9377    3.4903  -16.3811 N   0  0  0  0  0  0  0  0  0  0  0  0
  -11.9831    3.3680  -17.4835 C   0  0  0  0  0  0  0  0  0  0  0  0
  -12.4973    4.1939  -18.6807 C   0  0  0  0  0  0  0  0  0  0  0  0
  -13.6038    3.4907  -19.4918 C   0  0  0  0  0  0  0  0  0  0  0  0
  -11.3424    4.5924  -19.6148 C   0  0  0  0  0  0  0  0  0  0  0  0
  -13.2068    5.6929  -17.9427 S   0  0  0  0  0  0  0  0  0  0  0  0
  -13.7835    2.9083  -16.5873 H   0  0  0  0  0  0  0  0  0  0  0  0
  -11.6863    1.9174  -17.7985 C   0  0  0  0  0  0  0  0  0  0  0  0
  -12.5941    0.9197  -17.4536 O   0  0  0  0  0  0  0  0  0  0  0  0
  -10.6224    1.5964  -18.3909 O   0  0  0  0  0  0  0  0  0  0  0  0
  -13.4574    1.1327  -16.9690 H   0  0  0  0  0  0  0  0  0  0  0  0
  -12.5016    7.1184  -15.5473 C   0  0  0  0  0  0  0  0  0  0  0  0
  -11.4768    7.7631  -15.3949 O   0  0  0  0  0  0  0  0  0  0  0  0
  1 10  1  0  0  0
  1  2  2  0  0  0
  1  3  1  0  0  0
  3 19  1  0  0  0
  3  4  1  0  0  0
  5  6  1  0  0  0
  6  7  1  0  0  0
  6 10  2  0  0  0
  7  8  1  0  0  0
  8  9  2  0  0  0
  9 10  1  0  0  0
  9 11  1  0  0  0
 11 12  2  0  0  0
 11 17  1  0  0  0
 12 13  1  0  0  0
 12 14  1  0  0  0
 14 15  2  0  0  0
 15 16  1  0  0  0
 16 17  2  0  0  0
 17 18  1  0  0  0
 19 32  1  0  0  0
 19 20  1  0  0  0
 20 21  1  0  0  0
 20 26  1  0  0  0
 21 22  1  0  0  0
 21 27  1  0  0  0
 22 28  1  0  0  0
 22 23  1  0  0  0
 23 24  1  0  0  0
 23 25  1  0  0  0
 23 26  1  0  0  0
 28 29  1  0  0  0
 28 30  2  0  0  0
 29 31  1  0  0  0
 32 33  2  0  0  0
M  END
> <COMPND>
../0-casp/USpIc4.pdb

> <AUTHOR>
GENERATED BY OPEN BABEL 3.1.0

> <MASTER>
        0    0    0    0    0    0    0    0   33    0   33    0

> <minimizedAffinity>
-4.05716

> <CNNscore>
0.4031674564

> <CNNaffinity>
4.6665458679

> <CNN_VS>
1.8813993931

> <CNNaffinity_variance>
0.2134056389

$$$$



 33 35  0  0  0  0  0  0  0  0999 V2000
   -9.7979    5.5059  -11.8780 C   0  0  0  0  0  0  0  0  0  0  0  0
   -9.2698    6.6454  -11.7601 O   0  0  0  0  0  0  0  0  0  0  0  0
  -11.1247    5.2787  -11.3797 N   0  0  0  0  0  0  0  0  0  0  0  0
  -11.6462    4.4379  -11.7153 H   0  0  0  0  0  0  0  0  0  0  0  0
   -7.7604    3.4424  -10.5364 C   0  0  0  0  0  0  0  0  0  0  0  0
   -8.1583    3.5278  -11.9733 C   0  0  0  0  0  0  0  0  0  0  0  0
   -7.6845    2.7462  -12.9151 O   0  0  0  0  0  0  0  0  0  0  0  0
   -8.1928    3.0410  -14.0765 N   0  0  0  0  0  0  0  0  0  0  0  0
   -9.0430    4.0693  -13.8860 C   0  0  0  0  0  0  0  0  0  0  0  0
   -9.0460    4.4213  -12.5442 C   0  0  0  0  0  0  0  0  0  0  0  0
   -9.8679    4.6490  -14.9639 C   0  0  0  0  0  0  0  0  0  0  0  0
  -11.1039    4.0639  -15.3164 C   0  0  0  0  0  0  0  0  0  0  0  0
  -11.6693    2.5720  -14.5700 Cl  0  0  0  0  0  0  0  0  0  0  0  0
  -11.8986    4.6520  -16.3071 C   0  0  0  0  0  0  0  0  0  0  0  0
  -11.4717    5.8101  -16.9563 C   0  0  0  0  0  0  0  0  0  0  0  0
  -10.2448    6.3869  -16.6261 C   0  0  0  0  0  0  0  0  0  0  0  0
   -9.4378    5.8122  -15.6362 C   0  0  0  0  0  0  0  0  0  0  0  0
   -7.9195    6.6046  -15.2283 Cl  0  0  0  0  0  0  0  0  0  0  0  0
  -11.7870    6.2145  -10.4656 C   0  0  0  0  0  0  0  0  0  0  0  0
  -13.0050    6.8723  -11.1490 C   0  0  0  0  0  0  0  0  0  0  0  0
  -14.2489    6.4172  -10.5134 N   0  0  0  0  0  0  0  0  0  0  0  0
  -14.7831    5.3061  -11.3019 C   0  0  0  0  0  0  0  0  0  0  0  0
  -14.6422    5.6463  -12.7999 C   0  0  0  0  0  0  0  0  0  0  0  0
  -15.7272    6.6082  -13.3238 C   0  0  0  0  0  0  0  0  0  0  0  0
  -14.6220    4.3700  -13.6576 C   0  0  0  0  0  0  0  0  0  0  0  0
  -13.0358    6.4799  -12.9397 S   0  0  0  0  0  0  0  0  0  0  0  0
  -14.9281    7.2141  -10.5306 H   0  0  0  0  0  0  0  0  0  0  0  0
  -16.1870    4.9448  -10.8660 C   0  0  0  0  0  0  0  0  0  0  0  0
  -17.0442    5.9206  -10.3645 O   0  0  0  0  0  0  0  0  0  0  0  0
  -16.6030    3.7604  -10.9668 O   0  0  0  0  0  0  0  0  0  0  0  0
  -16.7477    6.8831  -10.2587 H   0  0  0  0  0  0  0  0  0  0  0  0
  -12.2190    5.4682   -9.2319 C   0  0  0  0  0  0  0  0  0  0  0  0
  -12.6170    6.0737   -8.2500 O   0  0  0  0  0  0  0  0  0  0  0  0
  1 10  1  0  0  0
  1  2  2  0  0  0
  1  3  1  0  0  0
  3 19  1  0  0  0
  3  4  1  0  0  0
  5  6  1  0  0  0
  6  7  1  0  0  0
  6 10  2  0  0  0
  7  8  1  0  0  0
  8  9  2  0  0  0
  9 10  1  0  0  0
  9 11  1  0  0  0
 11 12  2  0  0  0
 11 17  1  0  0  0
 12 13  1  0  0  0
 12 14  1  0  0  0
 14 15  2  0  0  0
 15 16  1  0  0  0
 16 17  2  0  0  0
 17 18  1  0  0  0
 19 32  1  0  0  0
 19 20  1  0  0  0
 20 21  1  0  0  0
 20 26  1  0  0  0
 21 22  1  0  0  0
 21 27  1  0  0  0
 22 28  1  0  0  0
 22 23  1  0  0  0
 23 24  1  0  0  0
 23 25  1  0  0  0
 23 26  1  0  0  0
 28 29  1  0  0  0
 28 30  2  0  0  0
 29 31  1  0  0  0
 32 33  2  0  0  0
M  END
> <COMPND>
../0-casp/USpIc4.pdb

> <AUTHOR>
GENERATED BY OPEN BABEL 3.1.0

> <MASTER>
        0    0    0    0    0    0    0    0   33    0   33    0

> <minimizedAffinity>
-6.37445

> <CNNscore>
0.3912661672

> <CNNaffinity>
5.0378684998

> <CNN_VS>
1.9711475372

> <CNNaffinity_variance>
0.4630962908

$$$$



 33 35  0  0  0  0  0  0  0  0999 V2000
  -13.5446    0.1926  -17.5909 C   0  0  0  0  0  0  0  0  0  0  0  0
  -12.3948   -0.1015  -18.0185 O   0  0  0  0  0  0  0  0  0  0  0  0
  -13.9992    1.5532  -17.6425 N   0  0  0  0  0  0  0  0  0  0  0  0
  -15.0224    1.7410  -17.5455 H   0  0  0  0  0  0  0  0  0  0  0  0
  -14.5776   -2.4214  -19.1104 C   0  0  0  0  0  0  0  0  0  0  0  0
  -14.8730   -2.0056  -17.7068 C   0  0  0  0  0  0  0  0  0  0  0  0
  -15.6469   -2.6786  -16.8880 O   0  0  0  0  0  0  0  0  0  0  0  0
  -15.7393   -2.0897  -15.7309 N   0  0  0  0  0  0  0  0  0  0  0  0
  -14.9876   -0.9729  -15.7951 C   0  0  0  0  0  0  0  0  0  0  0  0
  -14.4163   -0.8745  -17.0553 C   0  0  0  0  0  0  0  0  0  0  0  0
  -14.7859   -0.0650  -14.6490 C   0  0  0  0  0  0  0  0  0  0  0  0
  -15.6429    1.0391  -14.4476 C   0  0  0  0  0  0  0  0  0  0  0  0
  -16.9155    1.4458  -15.5953 Cl  0  0  0  0  0  0  0  0  0  0  0  0
  -15.4700    1.8636  -13.3299 C   0  0  0  0  0  0  0  0  0  0  0  0
  -14.4481    1.6059  -12.4166 C   0  0  0  0  0  0  0  0  0  0  0  0
  -13.5863    0.5266  -12.6152 C   0  0  0  0  0  0  0  0  0  0  0  0
  -13.7460   -0.3092  -13.7276 C   0  0  0  0  0  0  0  0  0  0  0  0
  -12.6584   -1.6819  -13.9073 Cl  0  0  0  0  0  0  0  0  0  0  0  0
  -13.0850    2.6739  -17.8832 C   0  0  0  0  0  0  0  0  0  0  0  0
  -13.1243    3.0989  -19.3668 C   0  0  0  0  0  0  0  0  0  0  0  0
  -12.1602    2.3096  -20.1452 N   0  0  0  0  0  0  0  0  0  0  0  0
  -10.9261    3.0870  -20.2644 C   0  0  0  0  0  0  0  0  0  0  0  0
  -11.2906    4.5567  -20.5590 C   0  0  0  0  0  0  0  0  0  0  0  0
  -11.6618    4.8222  -22.0316 C   0  0  0  0  0  0  0  0  0  0  0  0
  -10.1578    5.5044  -20.1303 C   0  0  0  0  0  0  0  0  0  0  0  0
  -12.7566    4.8867  -19.5408 S   0  0  0  0  0  0  0  0  0  0  0  0
  -12.5670    2.1547  -21.0975 H   0  0  0  0  0  0  0  0  0  0  0  0
   -9.9735    2.4612  -21.2605 C   0  0  0  0  0  0  0  0  0  0  0  0
   -8.6150    2.7641  -21.2252 O   0  0  0  0  0  0  0  0  0  0  0  0
  -10.3948    1.6460  -22.1231 O   0  0  0  0  0  0  0  0  0  0  0  0
   -8.2354    3.4204  -20.5539 H   0  0  0  0  0  0  0  0  0  0  0  0
  -13.4811    3.8254  -16.9985 C   0  0  0  0  0  0  0  0  0  0  0  0
  -14.5613    3.8265  -16.4307 O   0  0  0  0  0  0  0  0  0  0  0  0
  1 10  1  0  0  0
  1  2  2  0  0  0
  1  3  1  0  0  0
  3 19  1  0  0  0
  3  4  1  0  0  0
  5  6  1  0  0  0
  6  7  1  0  0  0
  6 10  2  0  0  0
  7  8  1  0  0  0
  8  9  2  0  0  0
  9 10  1  0  0  0
  9 11  1  0  0  0
 11 12  2  0  0  0
 11 17  1  0  0  0
 12 13  1  0  0  0
 12 14  1  0  0  0
 14 15  2  0  0  0
 15 16  1  0  0  0
 16 17  2  0  0  0
 17 18  1  0  0  0
 19 32  1  0  0  0
 19 20  1  0  0  0
 20 21  1  0  0  0
 20 26  1  0  0  0
 21 22  1  0  0  0
 21 27  1  0  0  0
 22 28  1  0  0  0
 22 23  1  0  0  0
 23 24  1  0  0  0
 23 25  1  0  0  0
 23 26  1  0  0  0
 28 29  1  0  0  0
 28 30  2  0  0  0
 29 31  1  0  0  0
 32 33  2  0  0  0
M  END
> <COMPND>
../0-casp/USpIc4.pdb

> <AUTHOR>
GENERATED BY OPEN BABEL 3.1.0

> <MASTER>
        0    0    0    0    0    0    0    0   33    0   33    0

> <minimizedAffinity>
-3.98634

> <CNNscore>
0.3765946925

> <CNNaffinity>
4.8057947159

> <CNN_VS>
1.8098367453

> <CNNaffinity_variance>
0.1543241441

$$$$



 33 35  0  0  0  0  0  0  0  0999 V2000
  -13.2828    0.8230  -15.8319 C   0  0  0  0  0  0  0  0  0  0  0  0
  -12.4646    1.2005  -16.7147 O   0  0  0  0  0  0  0  0  0  0  0  0
  -13.7291    1.7484  -14.8294 N   0  0  0  0  0  0  0  0  0  0  0  0
  -14.5893    1.5161  -14.2839 H   0  0  0  0  0  0  0  0  0  0  0  0
  -12.5798   -1.5282  -13.7858 C   0  0  0  0  0  0  0  0  0  0  0  0
  -13.4811   -1.5928  -14.9747 C   0  0  0  0  0  0  0  0  0  0  0  0
  -14.1107   -2.6772  -15.3620 O   0  0  0  0  0  0  0  0  0  0  0  0
  -14.8217   -2.4572  -16.4298 N   0  0  0  0  0  0  0  0  0  0  0  0
  -14.6485   -1.1619  -16.7596 C   0  0  0  0  0  0  0  0  0  0  0  0
  -13.7842   -0.5675  -15.8519 C   0  0  0  0  0  0  0  0  0  0  0  0
  -15.3478   -0.5118  -17.8852 C   0  0  0  0  0  0  0  0  0  0  0  0
  -16.5499    0.1974  -17.6707 C   0  0  0  0  0  0  0  0  0  0  0  0
  -17.3225    0.2546  -16.0889 Cl  0  0  0  0  0  0  0  0  0  0  0  0
  -17.1768    0.8500  -18.7385 C   0  0  0  0  0  0  0  0  0  0  0  0
  -16.6246    0.7959  -20.0180 C   0  0  0  0  0  0  0  0  0  0  0  0
  -15.4454    0.0847  -20.2431 C   0  0  0  0  0  0  0  0  0  0  0  0
  -14.8046   -0.5729  -19.1856 C   0  0  0  0  0  0  0  0  0  0  0  0
  -13.2968   -1.4196  -19.5162 Cl  0  0  0  0  0  0  0  0  0  0  0  0
  -13.0524    3.0269  -14.5895 C   0  0  0  0  0  0  0  0  0  0  0  0
  -14.0395    4.0651  -14.0141 C   0  0  0  0  0  0  0  0  0  0  0  0
  -14.0419    4.0021  -12.5464 N   0  0  0  0  0  0  0  0  0  0  0  0
  -15.1575    3.1519  -12.1289 C   0  0  0  0  0  0  0  0  0  0  0  0
  -16.3914    3.4922  -12.9899 C   0  0  0  0  0  0  0  0  0  0  0  0
  -17.1291    4.7697  -12.5418 C   0  0  0  0  0  0  0  0  0  0  0  0
  -17.3770    2.3125  -13.0350 C   0  0  0  0  0  0  0  0  0  0  0  0
  -15.7325    3.7782  -14.6569 S   0  0  0  0  0  0  0  0  0  0  0  0
  -14.1900    4.9732  -12.1838 H   0  0  0  0  0  0  0  0  0  0  0  0
  -15.3873    3.2368  -10.6351 C   0  0  0  0  0  0  0  0  0  0  0  0
  -15.9556    2.1687   -9.9461 O   0  0  0  0  0  0  0  0  0  0  0  0
  -15.0523    4.2677   -9.9941 O   0  0  0  0  0  0  0  0  0  0  0  0
  -16.2471    1.3246  -10.4235 H   0  0  0  0  0  0  0  0  0  0  0  0
  -11.9117    2.8034  -13.6333 C   0  0  0  0  0  0  0  0  0  0  0  0
  -11.0827    3.6785  -13.4435 O   0  0  0  0  0  0  0  0  0  0  0  0
  1 10  1  0  0  0
  1  2  2  0  0  0
  1  3  1  0  0  0
  3 19  1  0  0  0
  3  4  1  0  0  0
  5  6  1  0  0  0
  6  7  1  0  0  0
  6 10  2  0  0  0
  7  8  1  0  0  0
  8  9  2  0  0  0
  9 10  1  0  0  0
  9 11  1  0  0  0
 11 12  2  0  0  0
 11 17  1  0  0  0
 12 13  1  0  0  0
 12 14  1  0  0  0
 14 15  2  0  0  0
 15 16  1  0  0  0
 16 17  2  0  0  0
 17 18  1  0  0  0
 19 32  1  0  0  0
 19 20  1  0  0  0
 20 21  1  0  0  0
 20 26  1  0  0  0
 21 22  1  0  0  0
 21 27  1  0  0  0
 22 28  1  0  0  0
 22 23  1  0  0  0
 23 24  1  0  0  0
 23 25  1  0  0  0
 23 26  1  0  0  0
 28 29  1  0  0  0
 28 30  2  0  0  0
 29 31  1  0  0  0
 32 33  2  0  0  0
M  END
> <COMPND>
../0-casp/USpIc4.pdb

> <AUTHOR>
GENERATED BY OPEN BABEL 3.1.0

> <MASTER>
        0    0    0    0    0    0    0    0   33    0   33    0

> <minimizedAffinity>
-4.40881

> <CNNscore>
0.3709728718

> <CNNaffinity>
5.0427689552

> <CNN_VS>
1.8707305193

> <CNNaffinity_variance>
0.1256195605

$$$$



 33 35  0  0  0  0  0  0  0  0999 V2000
  -14.1688    4.7196  -13.4682 C   0  0  0  0  0  0  0  0  0  0  0  0
  -15.4218    4.8470  -13.5384 O   0  0  0  0  0  0  0  0  0  0  0  0
  -13.5876    3.4096  -13.3857 N   0  0  0  0  0  0  0  0  0  0  0  0
  -12.5708    3.3008  -13.5993 H   0  0  0  0  0  0  0  0  0  0  0  0
  -12.7179    6.0343  -15.9932 C   0  0  0  0  0  0  0  0  0  0  0  0
  -12.6765    6.4974  -14.5741 C   0  0  0  0  0  0  0  0  0  0  0  0
  -11.9908    7.5367  -14.1596 O   0  0  0  0  0  0  0  0  0  0  0  0
  -12.1240    7.7121  -12.8767 N   0  0  0  0  0  0  0  0  0  0  0  0
  -12.9387    6.7368  -12.4274 C   0  0  0  0  0  0  0  0  0  0  0  0
  -13.3129    5.9248  -13.4880 C   0  0  0  0  0  0  0  0  0  0  0  0
  -13.3841    6.6357  -11.0239 C   0  0  0  0  0  0  0  0  0  0  0  0
  -14.6468    7.1328  -10.6333 C   0  0  0  0  0  0  0  0  0  0  0  0
  -15.6984    7.9815  -11.7629 Cl  0  0  0  0  0  0  0  0  0  0  0  0
  -15.0767    6.9867   -9.3093 C   0  0  0  0  0  0  0  0  0  0  0  0
  -14.2594    6.3599   -8.3692 C   0  0  0  0  0  0  0  0  0  0  0  0
  -13.0034    5.8792   -8.7417 C   0  0  0  0  0  0  0  0  0  0  0  0
  -12.5583    6.0159  -10.0626 C   0  0  0  0  0  0  0  0  0  0  0  0
  -10.9838    5.3536  -10.4890 Cl  0  0  0  0  0  0  0  0  0  0  0  0
  -14.3843    2.2199  -13.0694 C   0  0  0  0  0  0  0  0  0  0  0  0
  -14.1878    1.1317  -14.1467 C   0  0  0  0  0  0  0  0  0  0  0  0
  -15.4738    0.4970  -14.4654 N   0  0  0  0  0  0  0  0  0  0  0  0
  -15.5853   -0.7287  -13.6736 C   0  0  0  0  0  0  0  0  0  0  0  0
  -14.2252   -1.4563  -13.6891 C   0  0  0  0  0  0  0  0  0  0  0  0
  -13.9614   -2.2536  -14.9821 C   0  0  0  0  0  0  0  0  0  0  0  0
  -14.0788   -2.3818  -12.4696 C   0  0  0  0  0  0  0  0  0  0  0  0
  -12.9872   -0.1333  -13.5812 S   0  0  0  0  0  0  0  0  0  0  0  0
  -15.4678    0.2537  -15.4839 H   0  0  0  0  0  0  0  0  0  0  0  0
  -16.7580   -1.5727  -14.1250 C   0  0  0  0  0  0  0  0  0  0  0  0
  -17.3238   -2.5123  -13.2672 O   0  0  0  0  0  0  0  0  0  0  0  0
  -17.2472   -1.4244  -15.2759 O   0  0  0  0  0  0  0  0  0  0  0  0
  -16.9565   -2.6697  -12.3367 H   0  0  0  0  0  0  0  0  0  0  0  0
  -13.9700    1.7001  -11.7190 C   0  0  0  0  0  0  0  0  0  0  0  0
  -13.7971    2.4683  -10.7866 O   0  0  0  0  0  0  0  0  0  0  0  0
  1 10  1  0  0  0
  1  2  2  0  0  0
  1  3  1  0  0  0
  3 19  1  0  0  0
  3  4  1  0  0  0
  5  6  1  0  0  0
  6  7  1  0  0  0
  6 10  2  0  0  0
  7  8  1  0  0  0
  8  9  2  0  0  0
  9 10  1  0  0  0
  9 11  1  0  0  0
 11 12  2  0  0  0
 11 17  1  0  0  0
 12 13  1  0  0  0
 12 14  1  0  0  0
 14 15  2  0  0  0
 15 16  1  0  0  0
 16 17  2  0  0  0
 17 18  1  0  0  0
 19 32  1  0  0  0
 19 20  1  0  0  0
 20 21  1  0  0  0
 20 26  1  0  0  0
 21 22  1  0  0  0
 21 27  1  0  0  0
 22 28  1  0  0  0
 22 23  1  0  0  0
 23 24  1  0  0  0
 23 25  1  0  0  0
 23 26  1  0  0  0
 28 29  1  0  0  0
 28 30  2  0  0  0
 29 31  1  0  0  0
 32 33  2  0  0  0
M  END
> <COMPND>
../0-casp/USpIc4.pdb

> <AUTHOR>
GENERATED BY OPEN BABEL 3.1.0

> <MASTER>
        0    0    0    0    0    0    0    0   33    0   33    0

> <minimizedAffinity>
-5.02152

> <CNNscore>
0.3244827390

> <CNNaffinity>
4.7973866463

> <CNN_VS>
1.5566691160

> <CNNaffinity_variance>
0.4441587031

$$$$



 33 35  0  0  0  0  0  0  0  0999 V2000
  -13.0109    1.7395  -16.7525 C   0  0  0  0  0  0  0  0  0  0  0  0
  -12.4202    0.9937  -17.5809 O   0  0  0  0  0  0  0  0  0  0  0  0
  -14.4417    1.8502  -16.7850 N   0  0  0  0  0  0  0  0  0  0  0  0
  -14.9307    2.2407  -15.9484 H   0  0  0  0  0  0  0  0  0  0  0  0
  -12.6993    1.0671  -13.6445 C   0  0  0  0  0  0  0  0  0  0  0  0
  -12.0834    2.1992  -14.3990 C   0  0  0  0  0  0  0  0  0  0  0  0
  -11.3194    3.1166  -13.8542 O   0  0  0  0  0  0  0  0  0  0  0  0
  -10.9238    3.9891  -14.7353 N   0  0  0  0  0  0  0  0  0  0  0  0
  -11.4568    3.6249  -15.9185 C   0  0  0  0  0  0  0  0  0  0  0  0
  -12.2195    2.4791  -15.7465 C   0  0  0  0  0  0  0  0  0  0  0  0
  -11.1835    4.3351  -17.1832 C   0  0  0  0  0  0  0  0  0  0  0  0
  -11.8775    5.5222  -17.5049 C   0  0  0  0  0  0  0  0  0  0  0  0
  -13.1619    6.1521  -16.4775 Cl  0  0  0  0  0  0  0  0  0  0  0  0
  -11.5739    6.2117  -18.6845 C   0  0  0  0  0  0  0  0  0  0  0  0
  -10.5942    5.7270  -19.5507 C   0  0  0  0  0  0  0  0  0  0  0  0
   -9.9139    4.5466  -19.2493 C   0  0  0  0  0  0  0  0  0  0  0  0
  -10.2043    3.8449  -18.0725 C   0  0  0  0  0  0  0  0  0  0  0  0
   -9.2865    2.3846  -17.7195 Cl  0  0  0  0  0  0  0  0  0  0  0  0
  -15.2359    1.3820  -17.9252 C   0  0  0  0  0  0  0  0  0  0  0  0
  -16.0947    0.1629  -17.5257 C   0  0  0  0  0  0  0  0  0  0  0  0
  -15.4494   -0.5739  -16.4308 N   0  0  0  0  0  0  0  0  0  0  0  0
  -14.6863   -1.6786  -17.0130 C   0  0  0  0  0  0  0  0  0  0  0  0
  -15.5291   -2.3325  -18.1273 C   0  0  0  0  0  0  0  0  0  0  0  0
  -16.6166   -3.2913  -17.6029 C   0  0  0  0  0  0  0  0  0  0  0  0
  -14.6340   -3.0668  -19.1395 C   0  0  0  0  0  0  0  0  0  0  0  0
  -16.3544   -0.9475  -18.9613 S   0  0  0  0  0  0  0  0  0  0  0  0
  -16.2036   -0.9589  -15.8148 H   0  0  0  0  0  0  0  0  0  0  0  0
  -14.1990   -2.6356  -15.9462 C   0  0  0  0  0  0  0  0  0  0  0  0
  -13.1115   -3.4703  -16.1892 O   0  0  0  0  0  0  0  0  0  0  0  0
  -14.7606   -2.6773  -14.8197 O   0  0  0  0  0  0  0  0  0  0  0  0
  -12.6362   -3.4751  -17.0834 H   0  0  0  0  0  0  0  0  0  0  0  0
  -16.1145    2.5070  -18.4027 C   0  0  0  0  0  0  0  0  0  0  0  0
  -16.4020    3.4277  -17.6551 O   0  0  0  0  0  0  0  0  0  0  0  0
  1 10  1  0  0  0
  1  2  2  0  0  0
  1  3  1  0  0  0
  3 19  1  0  0  0
  3  4  1  0  0  0
  5  6  1  0  0  0
  6  7  1  0  0  0
  6 10  2  0  0  0
  7  8  1  0  0  0
  8  9  2  0  0  0
  9 10  1  0  0  0
  9 11  1  0  0  0
 11 12  2  0  0  0
 11 17  1  0  0  0
 12 13  1  0  0  0
 12 14  1  0  0  0
 14 15  2  0  0  0
 15 16  1  0  0  0
 16 17  2  0  0  0
 17 18  1  0  0  0
 19 32  1  0  0  0
 19 20  1  0  0  0
 20 21  1  0  0  0
 20 26  1  0  0  0
 21 22  1  0  0  0
 21 27  1  0  0  0
 22 28  1  0  0  0
 22 23  1  0  0  0
 23 24  1  0  0  0
 23 25  1  0  0  0
 23 26  1  0  0  0
 28 29  1  0  0  0
 28 30  2  0  0  0
 29 31  1  0  0  0
 32 33  2  0  0  0
M  END
> <COMPND>
../0-casp/USpIc4.pdb

> <AUTHOR>
GENERATED BY OPEN BABEL 3.1.0

> <MASTER>
        0    0    0    0    0    0    0    0   33    0   33    0

> <minimizedAffinity>
-3.78177

> <CNNscore>
0.3205963969

> <CNNaffinity>
4.6273422241

> <CNN_VS>
1.4835093021

> <CNNaffinity_variance>
0.2078206241

$$$$



 33 35  0  0  0  0  0  0  0  0999 V2000
  -13.4173    4.1779  -13.0999 C   0  0  0  0  0  0  0  0  0  0  0  0
  -13.9855    5.1505  -13.6677 O   0  0  0  0  0  0  0  0  0  0  0  0
  -12.5074    3.3509  -13.8407 N   0  0  0  0  0  0  0  0  0  0  0  0
  -11.8501    2.7348  -13.3117 H   0  0  0  0  0  0  0  0  0  0  0  0
  -14.9228    1.6575  -11.8387 C   0  0  0  0  0  0  0  0  0  0  0  0
  -14.3410    2.8280  -11.1163 C   0  0  0  0  0  0  0  0  0  0  0  0
  -14.3951    2.9899   -9.8151 O   0  0  0  0  0  0  0  0  0  0  0  0
  -13.8181    4.0981   -9.4505 N   0  0  0  0  0  0  0  0  0  0  0  0
  -13.3629    4.6934  -10.5708 C   0  0  0  0  0  0  0  0  0  0  0  0
  -13.6856    3.9122  -11.6706 C   0  0  0  0  0  0  0  0  0  0  0  0
  -12.5886    5.9500  -10.5633 C   0  0  0  0  0  0  0  0  0  0  0  0
  -11.1922    5.9346  -10.7730 C   0  0  0  0  0  0  0  0  0  0  0  0
  -10.2980    4.4273  -10.9481 Cl  0  0  0  0  0  0  0  0  0  0  0  0
  -10.4778    7.1375  -10.8118 C   0  0  0  0  0  0  0  0  0  0  0  0
  -11.1371    8.3536  -10.6347 C   0  0  0  0  0  0  0  0  0  0  0  0
  -12.5142    8.3783  -10.4112 C   0  0  0  0  0  0  0  0  0  0  0  0
  -13.2446    7.1840  -10.3708 C   0  0  0  0  0  0  0  0  0  0  0  0
  -14.9860    7.2745  -10.1286 Cl  0  0  0  0  0  0  0  0  0  0  0  0
  -12.4336    3.3872  -15.3047 C   0  0  0  0  0  0  0  0  0  0  0  0
  -10.9955    3.7025  -15.7691 C   0  0  0  0  0  0  0  0  0  0  0  0
  -10.3115    4.5336  -14.7693 N   0  0  0  0  0  0  0  0  0  0  0  0
  -10.4321    5.9328  -15.1808 C   0  0  0  0  0  0  0  0  0  0  0  0
  -10.1957    6.0259  -16.7024 C   0  0  0  0  0  0  0  0  0  0  0  0
   -8.7080    5.9815  -17.1044 C   0  0  0  0  0  0  0  0  0  0  0  0
  -10.8545    7.2858  -17.2886 C   0  0  0  0  0  0  0  0  0  0  0  0
  -11.0090    4.5566  -17.3914 S   0  0  0  0  0  0  0  0  0  0  0  0
   -9.3009    4.2593  -14.7613 H   0  0  0  0  0  0  0  0  0  0  0  0
   -9.5436    6.8317  -14.3479 C   0  0  0  0  0  0  0  0  0  0  0  0
   -8.4348    6.3117  -13.6855 O   0  0  0  0  0  0  0  0  0  0  0  0
   -9.7863    8.0641  -14.2568 O   0  0  0  0  0  0  0  0  0  0  0  0
   -8.2080    5.3255  -13.7250 H   0  0  0  0  0  0  0  0  0  0  0  0
  -12.8793    2.0564  -15.8488 C   0  0  0  0  0  0  0  0  0  0  0  0
  -12.8929    1.0683  -15.1329 O   0  0  0  0  0  0  0  0  0  0  0  0
  1 10  1  0  0  0
  1  2  2  0  0  0
  1  3  1  0  0  0
  3 19  1  0  0  0
  3  4  1  0  0  0
  5  6  1  0  0  0
  6  7  1  0  0  0
  6 10  2  0  0  0
  7  8  1  0  0  0
  8  9  2  0  0  0
  9 10  1  0  0  0
  9 11  1  0  0  0
 11 12  2  0  0  0
 11 17  1  0  0  0
 12 13  1  0  0  0
 12 14  1  0  0  0
 14 15  2  0  0  0
 15 16  1  0  0  0
 16 17  2  0  0  0
 17 18  1  0  0  0
 19 32  1  0  0  0
 19 20  1  0  0  0
 20 21  1  0  0  0
 20 26  1  0  0  0
 21 22  1  0  0  0
 21 27  1  0  0  0
 22 28  1  0  0  0
 22 23  1  0  0  0
 23 24  1  0  0  0
 23 25  1  0  0  0
 23 26  1  0  0  0
 28 29  1  0  0  0
 28 30  2  0  0  0
 29 31  1  0  0  0
 32 33  2  0  0  0
M  END
> <COMPND>
../0-casp/USpIc4.pdb

> <AUTHOR>
GENERATED BY OPEN BABEL 3.1.0

> <MASTER>
        0    0    0    0    0    0    0    0   33    0   33    0

> <minimizedAffinity>
-5.62166

> <CNNscore>
0.3091377318

> <CNNaffinity>
4.6926178932

> <CNN_VS>
1.4506652355

> <CNNaffinity_variance>
0.4860539436

$$$$
