


 33 35  0  0  0  0  0  0  0  0999 V2000
   -7.8844    3.2016  -11.9271 C   0  0  0  0  0  0  0  0  0  0  0  0
   -8.9306    3.7255  -11.4556 O   0  0  0  0  0  0  0  0  0  0  0  0
   -7.1044    2.3100  -11.1165 N   0  0  0  0  0  0  0  0  0  0  0  0
   -6.4134    1.6837  -11.5873 H   0  0  0  0  0  0  0  0  0  0  0  0
   -7.0123    6.0292  -13.1328 C   0  0  0  0  0  0  0  0  0  0  0  0
   -7.1108    4.7230  -13.8500 C   0  0  0  0  0  0  0  0  0  0  0  0
   -6.8623    4.5659  -15.1290 O   0  0  0  0  0  0  0  0  0  0  0  0
   -7.0322    3.3290  -15.4969 N   0  0  0  0  0  0  0  0  0  0  0  0
   -7.4123    2.6402  -14.4025 C   0  0  0  0  0  0  0  0  0  0  0  0
   -7.4839    3.5022  -13.3180 C   0  0  0  0  0  0  0  0  0  0  0  0
   -7.6399    1.1818  -14.4015 C   0  0  0  0  0  0  0  0  0  0  0  0
   -8.9514    0.6594  -14.4331 C   0  0  0  0  0  0  0  0  0  0  0  0
  -10.3672    1.7053  -14.3706 Cl  0  0  0  0  0  0  0  0  0  0  0  0
   -9.1516   -0.7250  -14.4809 C   0  0  0  0  0  0  0  0  0  0  0  0
   -8.0608   -1.5939  -14.4881 C   0  0  0  0  0  0  0  0  0  0  0  0
   -6.7612   -1.0879  -14.4414 C   0  0  0  0  0  0  0  0  0  0  0  0
   -6.5430    0.2947  -14.3946 C   0  0  0  0  0  0  0  0  0  0  0  0
   -4.8831    0.8810  -14.3803 Cl  0  0  0  0  0  0  0  0  0  0  0  0
   -7.2877    2.2114   -9.6650 C   0  0  0  0  0  0  0  0  0  0  0  0
   -7.3456    0.7333   -9.2234 C   0  0  0  0  0  0  0  0  0  0  0  0
   -6.2457    0.4388   -8.2952 N   0  0  0  0  0  0  0  0  0  0  0  0
   -5.1452   -0.1443   -9.0637 C   0  0  0  0  0  0  0  0  0  0  0  0
   -5.7255   -1.1522  -10.0771 C   0  0  0  0  0  0  0  0  0  0  0  0
   -6.0864   -2.5177   -9.4589 C   0  0  0  0  0  0  0  0  0  0  0  0
   -4.7690   -1.3563  -11.2640 C   0  0  0  0  0  0  0  0  0  0  0  0
   -7.2568   -0.3828  -10.6754 S   0  0  0  0  0  0  0  0  0  0  0  0
   -6.5927   -0.2616   -7.5984 H   0  0  0  0  0  0  0  0  0  0  0  0
   -4.0751   -0.7090   -8.1540 C   0  0  0  0  0  0  0  0  0  0  0  0
   -2.8811   -1.1919   -8.6828 O   0  0  0  0  0  0  0  0  0  0  0  0
   -4.2443   -0.7340   -6.9063 O   0  0  0  0  0  0  0  0  0  0  0  0
   -2.7072   -1.1984   -9.6804 H   0  0  0  0  0  0  0  0  0  0  0  0
   -6.1486    2.9178   -8.9802 C   0  0  0  0  0  0  0  0  0  0  0  0
   -6.3659    3.7242   -8.0904 O   0  0  0  0  0  0  0  0  0  0  0  0
  1 10  1  0  0  0
  1  2  2  0  0  0
  1  3  1  0  0  0
  3 19  1  0  0  0
  3  4  1  0  0  0
  5  6  1  0  0  0
  6  7  1  0  0  0
  6 10  2  0  0  0
  7  8  1  0  0  0
  8  9  2  0  0  0
  9 10  1  0  0  0
  9 11  1  0  0  0
 11 12  2  0  0  0
 11 17  1  0  0  0
 12 13  1  0  0  0
 12 14  1  0  0  0
 14 15  2  0  0  0
 15 16  1  0  0  0
 16 17  2  0  0  0
 17 18  1  0  0  0
 19 32  1  0  0  0
 19 20  1  0  0  0
 20 21  1  0  0  0
 20 26  1  0  0  0
 21 22  1  0  0  0
 21 27  1  0  0  0
 22 28  1  0  0  0
 22 23  1  0  0  0
 23 24  1  0  0  0
 23 25  1  0  0  0
 23 26  1  0  0  0
 28 29  1  0  0  0
 28 30  2  0  0  0
 29 31  1  0  0  0
 32 33  2  0  0  0
M  END
> <COMPND>
../0-casp/USpIc4.pdb

> <AUTHOR>
GENERATED BY OPEN BABEL 3.1.0

> <MASTER>
        0    0    0    0    0    0    0    0   33    0   33    0

> <minimizedAffinity>
-7.81282

> <CNNscore>
0.7452700138

> <CNNaffinity>
6.4280443192

> <CNN_VS>
4.7906289101

> <CNNaffinity_variance>
0.0828246325

$$$$



 33 35  0  0  0  0  0  0  0  0999 V2000
   -7.0214    3.0327  -12.2109 C   0  0  0  0  0  0  0  0  0  0  0  0
   -8.0702    3.7039  -12.0087 O   0  0  0  0  0  0  0  0  0  0  0  0
   -6.5409    2.1362  -11.1981 N   0  0  0  0  0  0  0  0  0  0  0  0
   -5.8496    1.4015  -11.4696 H   0  0  0  0  0  0  0  0  0  0  0  0
   -5.3227    5.5351  -13.2412 C   0  0  0  0  0  0  0  0  0  0  0  0
   -5.5762    4.2484  -13.9556 C   0  0  0  0  0  0  0  0  0  0  0  0
   -5.1329    3.9767  -15.1605 O   0  0  0  0  0  0  0  0  0  0  0  0
   -5.5049    2.7907  -15.5467 N   0  0  0  0  0  0  0  0  0  0  0  0
   -6.2300    2.2580  -14.5431 C   0  0  0  0  0  0  0  0  0  0  0  0
   -6.3085    3.1678  -13.4989 C   0  0  0  0  0  0  0  0  0  0  0  0
   -6.7766    0.8875  -14.5773 C   0  0  0  0  0  0  0  0  0  0  0  0
   -5.9277   -0.2288  -14.4119 C   0  0  0  0  0  0  0  0  0  0  0  0
   -4.1818   -0.0513  -14.2625 Cl  0  0  0  0  0  0  0  0  0  0  0  0
   -6.4662   -1.5207  -14.3979 C   0  0  0  0  0  0  0  0  0  0  0  0
   -7.8384   -1.7129  -14.5561 C   0  0  0  0  0  0  0  0  0  0  0  0
   -8.6835   -0.6172  -14.7359 C   0  0  0  0  0  0  0  0  0  0  0  0
   -8.1614    0.6823  -14.7510 C   0  0  0  0  0  0  0  0  0  0  0  0
   -9.2771    2.0314  -14.9381 Cl  0  0  0  0  0  0  0  0  0  0  0  0
   -7.0308    2.1831   -9.8168 C   0  0  0  0  0  0  0  0  0  0  0  0
   -7.1489    0.7589   -9.2330 C   0  0  0  0  0  0  0  0  0  0  0  0
   -6.0444    0.5014   -8.2992 N   0  0  0  0  0  0  0  0  0  0  0  0
   -4.9893   -0.2060   -9.0257 C   0  0  0  0  0  0  0  0  0  0  0  0
   -5.6381   -1.2770   -9.9267 C   0  0  0  0  0  0  0  0  0  0  0  0
   -6.0497   -2.5574   -9.1730 C   0  0  0  0  0  0  0  0  0  0  0  0
   -4.7180   -1.6408  -11.1041 C   0  0  0  0  0  0  0  0  0  0  0  0
   -7.1439   -0.4945  -10.5711 S   0  0  0  0  0  0  0  0  0  0  0  0
   -6.4091   -0.1109   -7.5320 H   0  0  0  0  0  0  0  0  0  0  0  0
   -3.9279   -0.7325   -8.0836 C   0  0  0  0  0  0  0  0  0  0  0  0
   -4.1540   -0.7616   -6.7101 O   0  0  0  0  0  0  0  0  0  0  0  0
   -2.8336   -1.1660   -8.5313 O   0  0  0  0  0  0  0  0  0  0  0  0
   -5.0160   -0.4152   -6.3072 H   0  0  0  0  0  0  0  0  0  0  0  0
   -6.0826    3.0103   -8.9907 C   0  0  0  0  0  0  0  0  0  0  0  0
   -6.5046    3.7326   -8.1022 O   0  0  0  0  0  0  0  0  0  0  0  0
  1 10  1  0  0  0
  1  2  2  0  0  0
  1  3  1  0  0  0
  3 19  1  0  0  0
  3  4  1  0  0  0
  5  6  1  0  0  0
  6  7  1  0  0  0
  6 10  2  0  0  0
  7  8  1  0  0  0
  8  9  2  0  0  0
  9 10  1  0  0  0
  9 11  1  0  0  0
 11 12  2  0  0  0
 11 17  1  0  0  0
 12 13  1  0  0  0
 12 14  1  0  0  0
 14 15  2  0  0  0
 15 16  1  0  0  0
 16 17  2  0  0  0
 17 18  1  0  0  0
 19 32  1  0  0  0
 19 20  1  0  0  0
 20 21  1  0  0  0
 20 26  1  0  0  0
 21 22  1  0  0  0
 21 27  1  0  0  0
 22 28  1  0  0  0
 22 23  1  0  0  0
 23 24  1  0  0  0
 23 25  1  0  0  0
 23 26  1  0  0  0
 28 29  1  0  0  0
 28 30  2  0  0  0
 29 31  1  0  0  0
 32 33  2  0  0  0
M  END
> <COMPND>
../0-casp/USpIc4.pdb

> <AUTHOR>
GENERATED BY OPEN BABEL 3.1.0

> <MASTER>
        0    0    0    0    0    0    0    0   33    0   33    0

> <minimizedAffinity>
-7.91234

> <CNNscore>
0.6982427239

> <CNNaffinity>
6.5301132202

> <CNN_VS>
4.5596041679

> <CNNaffinity_variance>
0.2480644435

$$$$



 33 35  0  0  0  0  0  0  0  0999 V2000
   -6.7330    4.8764  -12.2215 C   0  0  0  0  0  0  0  0  0  0  0  0
   -7.3104    5.7536  -11.5226 O   0  0  0  0  0  0  0  0  0  0  0  0
   -6.8707    3.4885  -11.8823 N   0  0  0  0  0  0  0  0  0  0  0  0
   -6.6253    2.7724  -12.6024 H   0  0  0  0  0  0  0  0  0  0  0  0
   -4.1258    3.4533  -13.3991 C   0  0  0  0  0  0  0  0  0  0  0  0
   -4.8005    4.6852  -13.9066 C   0  0  0  0  0  0  0  0  0  0  0  0
   -4.3780    5.3850  -14.9332 O   0  0  0  0  0  0  0  0  0  0  0  0
   -5.1456    6.4125  -15.1552 N   0  0  0  0  0  0  0  0  0  0  0  0
   -6.1211    6.3848  -14.2255 C   0  0  0  0  0  0  0  0  0  0  0  0
   -5.9329    5.2909  -13.3934 C   0  0  0  0  0  0  0  0  0  0  0  0
   -7.2312    7.3567  -14.1867 C   0  0  0  0  0  0  0  0  0  0  0  0
   -8.4702    7.0568  -14.7941 C   0  0  0  0  0  0  0  0  0  0  0  0
   -8.7190    5.5714  -15.7074 Cl  0  0  0  0  0  0  0  0  0  0  0  0
   -9.5298    7.9672  -14.7078 C   0  0  0  0  0  0  0  0  0  0  0  0
   -9.3657    9.1759  -14.0317 C   0  0  0  0  0  0  0  0  0  0  0  0
   -8.1404    9.4883  -13.4416 C   0  0  0  0  0  0  0  0  0  0  0  0
   -7.0703    8.5880  -13.5174 C   0  0  0  0  0  0  0  0  0  0  0  0
   -5.5599    9.0128  -12.7187 Cl  0  0  0  0  0  0  0  0  0  0  0  0
   -7.3961    3.0494  -10.5856 C   0  0  0  0  0  0  0  0  0  0  0  0
   -7.8217    1.5667  -10.6451 C   0  0  0  0  0  0  0  0  0  0  0  0
   -6.9570    0.7566   -9.7768 N   0  0  0  0  0  0  0  0  0  0  0  0
   -5.8976    0.1762  -10.6029 C   0  0  0  0  0  0  0  0  0  0  0  0
   -6.5145   -0.3192  -11.9271 C   0  0  0  0  0  0  0  0  0  0  0  0
   -7.2364   -1.6762  -11.8075 C   0  0  0  0  0  0  0  0  0  0  0  0
   -5.4540   -0.3916  -13.0386 C   0  0  0  0  0  0  0  0  0  0  0  0
   -7.7482    0.9380  -12.3659 S   0  0  0  0  0  0  0  0  0  0  0  0
   -7.5406   -0.0116   -9.3695 H   0  0  0  0  0  0  0  0  0  0  0  0
   -5.1145   -0.8713   -9.8406 C   0  0  0  0  0  0  0  0  0  0  0  0
   -5.4762   -1.2171   -8.5413 O   0  0  0  0  0  0  0  0  0  0  0  0
   -4.1363   -1.4550  -10.3776 O   0  0  0  0  0  0  0  0  0  0  0  0
   -6.2505   -0.7668   -8.0689 H   0  0  0  0  0  0  0  0  0  0  0  0
   -6.3348    3.2475   -9.5368 C   0  0  0  0  0  0  0  0  0  0  0  0
   -6.6444    3.4698   -8.3775 O   0  0  0  0  0  0  0  0  0  0  0  0
  1 10  1  0  0  0
  1  2  2  0  0  0
  1  3  1  0  0  0
  3 19  1  0  0  0
  3  4  1  0  0  0
  5  6  1  0  0  0
  6  7  1  0  0  0
  6 10  2  0  0  0
  7  8  1  0  0  0
  8  9  2  0  0  0
  9 10  1  0  0  0
  9 11  1  0  0  0
 11 12  2  0  0  0
 11 17  1  0  0  0
 12 13  1  0  0  0
 12 14  1  0  0  0
 14 15  2  0  0  0
 15 16  1  0  0  0
 16 17  2  0  0  0
 17 18  1  0  0  0
 19 32  1  0  0  0
 19 20  1  0  0  0
 20 21  1  0  0  0
 20 26  1  0  0  0
 21 22  1  0  0  0
 21 27  1  0  0  0
 22 28  1  0  0  0
 22 23  1  0  0  0
 23 24  1  0  0  0
 23 25  1  0  0  0
 23 26  1  0  0  0
 28 29  1  0  0  0
 28 30  2  0  0  0
 29 31  1  0  0  0
 32 33  2  0  0  0
M  END
> <COMPND>
../0-casp/USpIc4.pdb

> <AUTHOR>
GENERATED BY OPEN BABEL 3.1.0

> <MASTER>
        0    0    0    0    0    0    0    0   33    0   33    0

> <minimizedAffinity>
-7.87491

> <CNNscore>
0.6727820635

> <CNNaffinity>
6.3024907112

> <CNN_VS>
4.2402029037

> <CNNaffinity_variance>
0.0942411572

$$$$



 33 35  0  0  0  0  0  0  0  0999 V2000
   -7.1904    2.3695  -12.5108 C   0  0  0  0  0  0  0  0  0  0  0  0
   -8.4477    2.4661  -12.4749 O   0  0  0  0  0  0  0  0  0  0  0  0
   -6.4650    2.0413  -11.3164 N   0  0  0  0  0  0  0  0  0  0  0  0
   -5.4811    1.7021  -11.4079 H   0  0  0  0  0  0  0  0  0  0  0  0
   -5.4954    0.2302  -14.1720 C   0  0  0  0  0  0  0  0  0  0  0  0
   -5.7406    1.6633  -14.5132 C   0  0  0  0  0  0  0  0  0  0  0  0
   -5.2514    2.2605  -15.5745 O   0  0  0  0  0  0  0  0  0  0  0  0
   -5.6136    3.5097  -15.6252 N   0  0  0  0  0  0  0  0  0  0  0  0
   -6.3790    3.7432  -14.5406 C   0  0  0  0  0  0  0  0  0  0  0  0
   -6.4810    2.5808  -13.7904 C   0  0  0  0  0  0  0  0  0  0  0  0
   -7.0366    5.0379  -14.2765 C   0  0  0  0  0  0  0  0  0  0  0  0
   -8.0823    5.4953  -15.1080 C   0  0  0  0  0  0  0  0  0  0  0  0
   -8.5797    4.6068  -16.5451 Cl  0  0  0  0  0  0  0  0  0  0  0  0
   -8.7297    6.7018  -14.8175 C   0  0  0  0  0  0  0  0  0  0  0  0
   -8.3408    7.4612  -13.7144 C   0  0  0  0  0  0  0  0  0  0  0  0
   -7.2982    7.0255  -12.8958 C   0  0  0  0  0  0  0  0  0  0  0  0
   -6.6406    5.8200  -13.1713 C   0  0  0  0  0  0  0  0  0  0  0  0
   -5.3609    5.2956  -12.0819 Cl  0  0  0  0  0  0  0  0  0  0  0  0
   -7.0773    2.1121   -9.9860 C   0  0  0  0  0  0  0  0  0  0  0  0
   -7.1833    0.7047   -9.3604 C   0  0  0  0  0  0  0  0  0  0  0  0
   -6.0890    0.4924   -8.4036 N   0  0  0  0  0  0  0  0  0  0  0  0
   -5.0132   -0.2211   -9.0931 C   0  0  0  0  0  0  0  0  0  0  0  0
   -5.6331   -1.3286   -9.9699 C   0  0  0  0  0  0  0  0  0  0  0  0
   -6.0371   -2.5914   -9.1832 C   0  0  0  0  0  0  0  0  0  0  0  0
   -4.6907   -1.7143  -11.1224 C   0  0  0  0  0  0  0  0  0  0  0  0
   -7.1405   -0.5887  -10.6593 S   0  0  0  0  0  0  0  0  0  0  0  0
   -6.4559   -0.1017   -7.6232 H   0  0  0  0  0  0  0  0  0  0  0  0
   -3.9581   -0.7026   -8.1204 C   0  0  0  0  0  0  0  0  0  0  0  0
   -4.1975   -0.6775   -6.7490 O   0  0  0  0  0  0  0  0  0  0  0  0
   -2.8571   -1.1474   -8.5396 O   0  0  0  0  0  0  0  0  0  0  0  0
   -5.0654   -0.3203   -6.3687 H   0  0  0  0  0  0  0  0  0  0  0  0
   -6.2443    3.0115   -9.1127 C   0  0  0  0  0  0  0  0  0  0  0  0
   -6.7381    3.5620   -8.1420 O   0  0  0  0  0  0  0  0  0  0  0  0
  1 10  1  0  0  0
  1  2  2  0  0  0
  1  3  1  0  0  0
  3 19  1  0  0  0
  3  4  1  0  0  0
  5  6  1  0  0  0
  6  7  1  0  0  0
  6 10  2  0  0  0
  7  8  1  0  0  0
  8  9  2  0  0  0
  9 10  1  0  0  0
  9 11  1  0  0  0
 11 12  2  0  0  0
 11 17  1  0  0  0
 12 13  1  0  0  0
 12 14  1  0  0  0
 14 15  2  0  0  0
 15 16  1  0  0  0
 16 17  2  0  0  0
 17 18  1  0  0  0
 19 32  1  0  0  0
 19 20  1  0  0  0
 20 21  1  0  0  0
 20 26  1  0  0  0
 21 22  1  0  0  0
 21 27  1  0  0  0
 22 28  1  0  0  0
 22 23  1  0  0  0
 23 24  1  0  0  0
 23 25  1  0  0  0
 23 26  1  0  0  0
 28 29  1  0  0  0
 28 30  2  0  0  0
 29 31  1  0  0  0
 32 33  2  0  0  0
M  END
> <COMPND>
../0-casp/USpIc4.pdb

> <AUTHOR>
GENERATED BY OPEN BABEL 3.1.0

> <MASTER>
        0    0    0    0    0    0    0    0   33    0   33    0

> <minimizedAffinity>
-8.58458

> <CNNscore>
0.6411302090

> <CNNaffinity>
6.4703798294

> <CNN_VS>
4.1483559608

> <CNNaffinity_variance>
0.1294746399

$$$$



 33 35  0  0  0  0  0  0  0  0999 V2000
   -7.3788    2.4976  -12.5196 C   0  0  0  0  0  0  0  0  0  0  0  0
   -8.6270    2.6380  -12.4036 O   0  0  0  0  0  0  0  0  0  0  0  0
   -6.5936    2.1196  -11.3790 N   0  0  0  0  0  0  0  0  0  0  0  0
   -5.6303    1.7476  -11.5379 H   0  0  0  0  0  0  0  0  0  0  0  0
   -6.0328    0.2987  -14.4070 C   0  0  0  0  0  0  0  0  0  0  0  0
   -6.1525    1.7660  -14.6577 C   0  0  0  0  0  0  0  0  0  0  0  0
   -5.6797    2.3710  -15.7220 O   0  0  0  0  0  0  0  0  0  0  0  0
   -5.9141    3.6508  -15.6836 N   0  0  0  0  0  0  0  0  0  0  0  0
   -6.5740    3.8971  -14.5344 C   0  0  0  0  0  0  0  0  0  0  0  0
   -6.7424    2.7099  -13.8370 C   0  0  0  0  0  0  0  0  0  0  0  0
   -7.0749    5.2335  -14.1581 C   0  0  0  0  0  0  0  0  0  0  0  0
   -6.4674    5.9595  -13.1103 C   0  0  0  0  0  0  0  0  0  0  0  0
   -5.1653    5.2747  -12.1418 Cl  0  0  0  0  0  0  0  0  0  0  0  0
   -6.9213    7.2457  -12.7961 C   0  0  0  0  0  0  0  0  0  0  0  0
   -7.9786    7.8121  -13.5074 C   0  0  0  0  0  0  0  0  0  0  0  0
   -8.5957    7.0965  -14.5342 C   0  0  0  0  0  0  0  0  0  0  0  0
   -8.1531    5.8090  -14.8625 C   0  0  0  0  0  0  0  0  0  0  0  0
   -8.9384    4.9673  -16.1946 Cl  0  0  0  0  0  0  0  0  0  0  0  0
   -7.1197    2.1847  -10.0119 C   0  0  0  0  0  0  0  0  0  0  0  0
   -7.2246    0.7706   -9.4015 C   0  0  0  0  0  0  0  0  0  0  0  0
   -6.1368    0.5531   -8.4384 N   0  0  0  0  0  0  0  0  0  0  0  0
   -5.0527   -0.1488   -9.1267 C   0  0  0  0  0  0  0  0  0  0  0  0
   -5.6611   -1.2499  -10.0195 C   0  0  0  0  0  0  0  0  0  0  0  0
   -6.0658   -2.5223   -9.2488 C   0  0  0  0  0  0  0  0  0  0  0  0
   -4.7081   -1.6200  -11.1684 C   0  0  0  0  0  0  0  0  0  0  0  0
   -7.1662   -0.5093  -10.7130 S   0  0  0  0  0  0  0  0  0  0  0  0
   -6.5072   -0.0504   -7.6670 H   0  0  0  0  0  0  0  0  0  0  0  0
   -4.0032   -0.6358   -8.1506 C   0  0  0  0  0  0  0  0  0  0  0  0
   -4.2222   -0.5529   -6.7782 O   0  0  0  0  0  0  0  0  0  0  0  0
   -2.9258   -1.1372   -8.5675 O   0  0  0  0  0  0  0  0  0  0  0  0
   -5.0705   -0.1493   -6.4000 H   0  0  0  0  0  0  0  0  0  0  0  0
   -6.2098    3.0478   -9.1796 C   0  0  0  0  0  0  0  0  0  0  0  0
   -6.6294    3.6023   -8.1767 O   0  0  0  0  0  0  0  0  0  0  0  0
  1 10  1  0  0  0
  1  2  2  0  0  0
  1  3  1  0  0  0
  3 19  1  0  0  0
  3  4  1  0  0  0
  5  6  1  0  0  0
  6  7  1  0  0  0
  6 10  2  0  0  0
  7  8  1  0  0  0
  8  9  2  0  0  0
  9 10  1  0  0  0
  9 11  1  0  0  0
 11 12  2  0  0  0
 11 17  1  0  0  0
 12 13  1  0  0  0
 12 14  1  0  0  0
 14 15  2  0  0  0
 15 16  1  0  0  0
 16 17  2  0  0  0
 17 18  1  0  0  0
 19 32  1  0  0  0
 19 20  1  0  0  0
 20 21  1  0  0  0
 20 26  1  0  0  0
 21 22  1  0  0  0
 21 27  1  0  0  0
 22 28  1  0  0  0
 22 23  1  0  0  0
 23 24  1  0  0  0
 23 25  1  0  0  0
 23 26  1  0  0  0
 28 29  1  0  0  0
 28 30  2  0  0  0
 29 31  1  0  0  0
 32 33  2  0  0  0
M  END
> <COMPND>
../0-casp/USpIc4.pdb

> <AUTHOR>
GENERATED BY OPEN BABEL 3.1.0

> <MASTER>
        0    0    0    0    0    0    0    0   33    0   33    0

> <minimizedAffinity>
-8.50246

> <CNNscore>
0.6173071861

> <CNNaffinity>
6.4527068138

> <CNN_VS>
3.9833023548

> <CNNaffinity_variance>
0.1148273796

$$$$



 33 35  0  0  0  0  0  0  0  0999 V2000
   -5.8339    0.7351  -15.1691 C   0  0  0  0  0  0  0  0  0  0  0  0
   -6.8899    0.9412  -15.8276 O   0  0  0  0  0  0  0  0  0  0  0  0
   -5.8695    0.7655  -13.7344 N   0  0  0  0  0  0  0  0  0  0  0  0
   -5.0769    0.3356  -13.2067 H   0  0  0  0  0  0  0  0  0  0  0  0
   -4.5105   -2.1219  -15.7126 C   0  0  0  0  0  0  0  0  0  0  0  0
   -3.9904   -0.7830  -16.1215 C   0  0  0  0  0  0  0  0  0  0  0  0
   -2.8620   -0.5979  -16.7656 O   0  0  0  0  0  0  0  0  0  0  0  0
   -2.6453    0.6658  -16.9894 N   0  0  0  0  0  0  0  0  0  0  0  0
   -3.6850    1.3439  -16.4642 C   0  0  0  0  0  0  0  0  0  0  0  0
   -4.5735    0.4488  -15.8866 C   0  0  0  0  0  0  0  0  0  0  0  0
   -3.8361    2.8080  -16.5742 C   0  0  0  0  0  0  0  0  0  0  0  0
   -4.2849    3.3955  -17.7773 C   0  0  0  0  0  0  0  0  0  0  0  0
   -4.5839    2.4345  -19.2228 Cl  0  0  0  0  0  0  0  0  0  0  0  0
   -4.4701    4.7808  -17.8523 C   0  0  0  0  0  0  0  0  0  0  0  0
   -4.2045    5.5872  -16.7460 C   0  0  0  0  0  0  0  0  0  0  0  0
   -3.7457    5.0178  -15.5575 C   0  0  0  0  0  0  0  0  0  0  0  0
   -3.5563    3.6333  -15.4649 C   0  0  0  0  0  0  0  0  0  0  0  0
   -3.0171    2.9622  -13.9291 Cl  0  0  0  0  0  0  0  0  0  0  0  0
   -7.0035    1.3259  -12.9926 C   0  0  0  0  0  0  0  0  0  0  0  0
   -7.4440    0.3665  -11.8662 C   0  0  0  0  0  0  0  0  0  0  0  0
   -6.9159    0.8260  -10.5747 N   0  0  0  0  0  0  0  0  0  0  0  0
   -5.6765    0.0965  -10.3039 C   0  0  0  0  0  0  0  0  0  0  0  0
   -5.8767   -1.3840  -10.6880 C   0  0  0  0  0  0  0  0  0  0  0  0
   -6.6493   -2.2010   -9.6333 C   0  0  0  0  0  0  0  0  0  0  0  0
   -4.5307   -2.0647  -10.9881 C   0  0  0  0  0  0  0  0  0  0  0  0
   -6.8709   -1.3416  -12.2062 S   0  0  0  0  0  0  0  0  0  0  0  0
   -7.6235    0.5948   -9.8382 H   0  0  0  0  0  0  0  0  0  0  0  0
   -5.2022    0.3217   -8.8841 C   0  0  0  0  0  0  0  0  0  0  0  0
   -3.9249   -0.0728   -8.4950 O   0  0  0  0  0  0  0  0  0  0  0  0
   -5.9507    0.8835   -8.0414 O   0  0  0  0  0  0  0  0  0  0  0  0
   -3.2940   -0.5353   -9.1380 H   0  0  0  0  0  0  0  0  0  0  0  0
   -6.6006    2.6575  -12.4181 C   0  0  0  0  0  0  0  0  0  0  0  0
   -6.4650    3.6291  -13.1440 O   0  0  0  0  0  0  0  0  0  0  0  0
  1 10  1  0  0  0
  1  2  2  0  0  0
  1  3  1  0  0  0
  3 19  1  0  0  0
  3  4  1  0  0  0
  5  6  1  0  0  0
  6  7  1  0  0  0
  6 10  2  0  0  0
  7  8  1  0  0  0
  8  9  2  0  0  0
  9 10  1  0  0  0
  9 11  1  0  0  0
 11 12  2  0  0  0
 11 17  1  0  0  0
 12 13  1  0  0  0
 12 14  1  0  0  0
 14 15  2  0  0  0
 15 16  1  0  0  0
 16 17  2  0  0  0
 17 18  1  0  0  0
 19 32  1  0  0  0
 19 20  1  0  0  0
 20 21  1  0  0  0
 20 26  1  0  0  0
 21 22  1  0  0  0
 21 27  1  0  0  0
 22 28  1  0  0  0
 22 23  1  0  0  0
 23 24  1  0  0  0
 23 25  1  0  0  0
 23 26  1  0  0  0
 28 29  1  0  0  0
 28 30  2  0  0  0
 29 31  1  0  0  0
 32 33  2  0  0  0
M  END
> <COMPND>
../0-casp/USpIc4.pdb

> <AUTHOR>
GENERATED BY OPEN BABEL 3.1.0

> <MASTER>
        0    0    0    0    0    0    0    0   33    0   33    0

> <minimizedAffinity>
-5.64959

> <CNNscore>
0.4445986152

> <CNNaffinity>
5.6177353859

> <CNN_VS>
2.4976372719

> <CNNaffinity_variance>
0.3702848554

$$$$



 33 35  0  0  0  0  0  0  0  0999 V2000
   -5.3878    2.8456  -12.6617 C   0  0  0  0  0  0  0  0  0  0  0  0
   -4.2477    3.3592  -12.8286 O   0  0  0  0  0  0  0  0  0  0  0  0
   -5.7388    1.6429  -13.3623 N   0  0  0  0  0  0  0  0  0  0  0  0
   -6.5553    1.0875  -13.0214 H   0  0  0  0  0  0  0  0  0  0  0  0
   -5.7193    2.2938   -9.5320 C   0  0  0  0  0  0  0  0  0  0  0  0
   -6.4982    3.2468  -10.3778 C   0  0  0  0  0  0  0  0  0  0  0  0
   -7.4771    3.9971   -9.9291 O   0  0  0  0  0  0  0  0  0  0  0  0
   -7.9881    4.7273  -10.8776 N   0  0  0  0  0  0  0  0  0  0  0  0
   -7.3095    4.4402  -12.0062 C   0  0  0  0  0  0  0  0  0  0  0  0
   -6.3436    3.4833  -11.7315 C   0  0  0  0  0  0  0  0  0  0  0  0
   -7.5548    5.1185  -13.2939 C   0  0  0  0  0  0  0  0  0  0  0  0
   -8.6676    4.7685  -14.0897 C   0  0  0  0  0  0  0  0  0  0  0  0
   -9.7478    3.4506  -13.6440 Cl  0  0  0  0  0  0  0  0  0  0  0  0
   -8.9154    5.4533  -15.2850 C   0  0  0  0  0  0  0  0  0  0  0  0
   -8.0624    6.4754  -15.7003 C   0  0  0  0  0  0  0  0  0  0  0  0
   -6.9513    6.8180  -14.9288 C   0  0  0  0  0  0  0  0  0  0  0  0
   -6.6895    6.1440  -13.7294 C   0  0  0  0  0  0  0  0  0  0  0  0
   -5.2988    6.6450  -12.7731 Cl  0  0  0  0  0  0  0  0  0  0  0  0
   -4.9569    1.1437  -14.4979 C   0  0  0  0  0  0  0  0  0  0  0  0
   -4.7586   -0.3836  -14.3921 C   0  0  0  0  0  0  0  0  0  0  0  0
   -5.8163   -1.0839  -15.1331 N   0  0  0  0  0  0  0  0  0  0  0  0
   -6.8673   -1.4551  -14.1848 C   0  0  0  0  0  0  0  0  0  0  0  0
   -6.2086   -1.9846  -12.8943 C   0  0  0  0  0  0  0  0  0  0  0  0
   -5.7169   -3.4420  -13.0001 C   0  0  0  0  0  0  0  0  0  0  0  0
   -7.1556   -1.8423  -11.6910 C   0  0  0  0  0  0  0  0  0  0  0  0
   -4.7612   -0.9194  -12.6387 S   0  0  0  0  0  0  0  0  0  0  0  0
   -5.3987   -1.9507  -15.5462 H   0  0  0  0  0  0  0  0  0  0  0  0
   -7.8707   -2.3978  -14.8140 C   0  0  0  0  0  0  0  0  0  0  0  0
   -9.1528   -2.5205  -14.2852 O   0  0  0  0  0  0  0  0  0  0  0  0
   -7.5640   -3.0707  -15.8333 O   0  0  0  0  0  0  0  0  0  0  0  0
   -9.4384   -2.0045  -13.4619 H   0  0  0  0  0  0  0  0  0  0  0  0
   -5.6744    1.4911  -15.7746 C   0  0  0  0  0  0  0  0  0  0  0  0
   -6.3996    2.4710  -15.8300 O   0  0  0  0  0  0  0  0  0  0  0  0
  1 10  1  0  0  0
  1  2  2  0  0  0
  1  3  1  0  0  0
  3 19  1  0  0  0
  3  4  1  0  0  0
  5  6  1  0  0  0
  6  7  1  0  0  0
  6 10  2  0  0  0
  7  8  1  0  0  0
  8  9  2  0  0  0
  9 10  1  0  0  0
  9 11  1  0  0  0
 11 12  2  0  0  0
 11 17  1  0  0  0
 12 13  1  0  0  0
 12 14  1  0  0  0
 14 15  2  0  0  0
 15 16  1  0  0  0
 16 17  2  0  0  0
 17 18  1  0  0  0
 19 32  1  0  0  0
 19 20  1  0  0  0
 20 21  1  0  0  0
 20 26  1  0  0  0
 21 22  1  0  0  0
 21 27  1  0  0  0
 22 28  1  0  0  0
 22 23  1  0  0  0
 23 24  1  0  0  0
 23 25  1  0  0  0
 23 26  1  0  0  0
 28 29  1  0  0  0
 28 30  2  0  0  0
 29 31  1  0  0  0
 32 33  2  0  0  0
M  END
> <COMPND>
../0-casp/USpIc4.pdb

> <AUTHOR>
GENERATED BY OPEN BABEL 3.1.0

> <MASTER>
        0    0    0    0    0    0    0    0   33    0   33    0

> <minimizedAffinity>
-5.56386

> <CNNscore>
0.3368384838

> <CNNaffinity>
5.3053951263

> <CNN_VS>
1.7870612144

> <CNNaffinity_variance>
0.1608126760

$$$$



 33 35  0  0  0  0  0  0  0  0999 V2000
   -7.4217    2.7747  -12.8403 C   0  0  0  0  0  0  0  0  0  0  0  0
   -8.0987    1.7256  -13.0198 O   0  0  0  0  0  0  0  0  0  0  0  0
   -6.5454    2.8741  -11.7077 N   0  0  0  0  0  0  0  0  0  0  0  0
   -5.8041    3.6102  -11.7139 H   0  0  0  0  0  0  0  0  0  0  0  0
   -9.0247    5.5166  -12.4912 C   0  0  0  0  0  0  0  0  0  0  0  0
   -8.2248    5.0715  -13.6711 C   0  0  0  0  0  0  0  0  0  0  0  0
   -8.0897    5.7704  -14.7736 O   0  0  0  0  0  0  0  0  0  0  0  0
   -7.3482    5.1467  -15.6428 N   0  0  0  0  0  0  0  0  0  0  0  0
   -6.9790    3.9785  -15.0809 C   0  0  0  0  0  0  0  0  0  0  0  0
   -7.5291    3.8846  -13.8110 C   0  0  0  0  0  0  0  0  0  0  0  0
   -6.0732    3.0148  -15.7361 C   0  0  0  0  0  0  0  0  0  0  0  0
   -4.6736    3.1284  -15.5866 C   0  0  0  0  0  0  0  0  0  0  0  0
   -3.9412    4.4682  -14.7088 Cl  0  0  0  0  0  0  0  0  0  0  0  0
   -3.8285    2.1794  -16.1733 C   0  0  0  0  0  0  0  0  0  0  0  0
   -4.3615    1.1250  -16.9143 C   0  0  0  0  0  0  0  0  0  0  0  0
   -5.7424    1.0129  -17.0809 C   0  0  0  0  0  0  0  0  0  0  0  0
   -6.6024    1.9530  -16.4995 C   0  0  0  0  0  0  0  0  0  0  0  0
   -8.3380    1.7405  -16.7047 Cl  0  0  0  0  0  0  0  0  0  0  0  0
   -6.6216    1.9439  -10.5768 C   0  0  0  0  0  0  0  0  0  0  0  0
   -5.4815    0.9055  -10.6490 C   0  0  0  0  0  0  0  0  0  0  0  0
   -5.6727    0.0236  -11.8082 N   0  0  0  0  0  0  0  0  0  0  0  0
   -6.3477   -1.1912  -11.3498 C   0  0  0  0  0  0  0  0  0  0  0  0
   -5.7217   -1.6330  -10.0110 C   0  0  0  0  0  0  0  0  0  0  0  0
   -4.3794   -2.3752  -10.1670 C   0  0  0  0  0  0  0  0  0  0  0  0
   -6.7018   -2.4978   -9.2005 C   0  0  0  0  0  0  0  0  0  0  0  0
   -5.4094   -0.0885   -9.1100 S   0  0  0  0  0  0  0  0  0  0  0  0
   -4.7265   -0.2243  -12.1822 H   0  0  0  0  0  0  0  0  0  0  0  0
   -6.3563   -2.2570  -12.4247 C   0  0  0  0  0  0  0  0  0  0  0  0
   -5.3708   -2.2766  -13.4080 O   0  0  0  0  0  0  0  0  0  0  0  0
   -7.2452   -3.1491  -12.4337 O   0  0  0  0  0  0  0  0  0  0  0  0
   -4.6427   -1.5737  -13.4430 H   0  0  0  0  0  0  0  0  0  0  0  0
   -6.5357    2.7270   -9.2943 C   0  0  0  0  0  0  0  0  0  0  0  0
   -7.2389    3.7092   -9.1206 O   0  0  0  0  0  0  0  0  0  0  0  0
  1 10  1  0  0  0
  1  2  2  0  0  0
  1  3  1  0  0  0
  3 19  1  0  0  0
  3  4  1  0  0  0
  5  6  1  0  0  0
  6  7  1  0  0  0
  6 10  2  0  0  0
  7  8  1  0  0  0
  8  9  2  0  0  0
  9 10  1  0  0  0
  9 11  1  0  0  0
 11 12  2  0  0  0
 11 17  1  0  0  0
 12 13  1  0  0  0
 12 14  1  0  0  0
 14 15  2  0  0  0
 15 16  1  0  0  0
 16 17  2  0  0  0
 17 18  1  0  0  0
 19 32  1  0  0  0
 19 20  1  0  0  0
 20 21  1  0  0  0
 20 26  1  0  0  0
 21 22  1  0  0  0
 21 27  1  0  0  0
 22 28  1  0  0  0
 22 23  1  0  0  0
 23 24  1  0  0  0
 23 25  1  0  0  0
 23 26  1  0  0  0
 28 29  1  0  0  0
 28 30  2  0  0  0
 29 31  1  0  0  0
 32 33  2  0  0  0
M  END
> <COMPND>
../0-casp/USpIc4.pdb

> <AUTHOR>
GENERATED BY OPEN BABEL 3.1.0

> <MASTER>
        0    0    0    0    0    0    0    0   33    0   33    0

> <minimizedAffinity>
-5.24950

> <CNNscore>
0.2982116044

> <CNNaffinity>
5.5287890434

> <CNN_VS>
1.6487489939

> <CNNaffinity_variance>
0.1671406627

$$$$



 33 35  0  0  0  0  0  0  0  0999 V2000
   -6.3303    2.7739  -14.0783 C   0  0  0  0  0  0  0  0  0  0  0  0
   -7.3352    2.7254  -14.8393 O   0  0  0  0  0  0  0  0  0  0  0  0
   -6.4726    2.4532  -12.6864 N   0  0  0  0  0  0  0  0  0  0  0  0
   -5.6128    2.2340  -12.1348 H   0  0  0  0  0  0  0  0  0  0  0  0
   -3.8464    0.8483  -14.6538 C   0  0  0  0  0  0  0  0  0  0  0  0
   -3.9307    2.3216  -14.8829 C   0  0  0  0  0  0  0  0  0  0  0  0
   -2.9444    3.0507  -15.3498 O   0  0  0  0  0  0  0  0  0  0  0  0
   -3.2838    4.3037  -15.4436 N   0  0  0  0  0  0  0  0  0  0  0  0
   -4.5581    4.4008  -15.0154 C   0  0  0  0  0  0  0  0  0  0  0  0
   -5.0129    3.1464  -14.6360 C   0  0  0  0  0  0  0  0  0  0  0  0
   -5.3246    5.6621  -15.0318 C   0  0  0  0  0  0  0  0  0  0  0  0
   -5.8040    6.1955  -16.2482 C   0  0  0  0  0  0  0  0  0  0  0  0
   -5.4287    5.4498  -17.7990 Cl  0  0  0  0  0  0  0  0  0  0  0  0
   -6.5709    7.3664  -16.2440 C   0  0  0  0  0  0  0  0  0  0  0  0
   -6.8570    8.0160  -15.0436 C   0  0  0  0  0  0  0  0  0  0  0  0
   -6.3746    7.5053  -13.8379 C   0  0  0  0  0  0  0  0  0  0  0  0
   -5.6069    6.3340  -13.8240 C   0  0  0  0  0  0  0  0  0  0  0  0
   -5.0597    5.7093  -12.2716 Cl  0  0  0  0  0  0  0  0  0  0  0  0
   -7.7830    2.3682  -12.0341 C   0  0  0  0  0  0  0  0  0  0  0  0
   -7.9218    1.0375  -11.2639 C   0  0  0  0  0  0  0  0  0  0  0  0
   -7.1560    1.0951  -10.0116 N   0  0  0  0  0  0  0  0  0  0  0  0
   -5.8503    0.4776  -10.2475 C   0  0  0  0  0  0  0  0  0  0  0  0
   -6.0488   -0.7984  -11.0912 C   0  0  0  0  0  0  0  0  0  0  0  0
   -6.5344   -2.0136  -10.2760 C   0  0  0  0  0  0  0  0  0  0  0  0
   -4.7633   -1.1641  -11.8521 C   0  0  0  0  0  0  0  0  0  0  0  0
   -7.3443   -0.3694  -12.2880 S   0  0  0  0  0  0  0  0  0  0  0  0
   -7.6771    0.5422   -9.2911 H   0  0  0  0  0  0  0  0  0  0  0  0
   -5.0972    0.2666   -8.9514 C   0  0  0  0  0  0  0  0  0  0  0  0
   -3.8752   -0.4005   -8.9451 O   0  0  0  0  0  0  0  0  0  0  0  0
   -5.5583    0.7062   -7.8651 O   0  0  0  0  0  0  0  0  0  0  0  0
   -3.4724   -0.7773   -9.7943 H   0  0  0  0  0  0  0  0  0  0  0  0
   -7.9374    3.5346  -11.0954 C   0  0  0  0  0  0  0  0  0  0  0  0
   -7.0093    3.8834  -10.3838 O   0  0  0  0  0  0  0  0  0  0  0  0
  1 10  1  0  0  0
  1  2  2  0  0  0
  1  3  1  0  0  0
  3 19  1  0  0  0
  3  4  1  0  0  0
  5  6  1  0  0  0
  6  7  1  0  0  0
  6 10  2  0  0  0
  7  8  1  0  0  0
  8  9  2  0  0  0
  9 10  1  0  0  0
  9 11  1  0  0  0
 11 12  2  0  0  0
 11 17  1  0  0  0
 12 13  1  0  0  0
 12 14  1  0  0  0
 14 15  2  0  0  0
 15 16  1  0  0  0
 16 17  2  0  0  0
 17 18  1  0  0  0
 19 32  1  0  0  0
 19 20  1  0  0  0
 20 21  1  0  0  0
 20 26  1  0  0  0
 21 22  1  0  0  0
 21 27  1  0  0  0
 22 28  1  0  0  0
 22 23  1  0  0  0
 23 24  1  0  0  0
 23 25  1  0  0  0
 23 26  1  0  0  0
 28 29  1  0  0  0
 28 30  2  0  0  0
 29 31  1  0  0  0
 32 33  2  0  0  0
M  END
> <COMPND>
../0-casp/USpIc4.pdb

> <AUTHOR>
GENERATED BY OPEN BABEL 3.1.0

> <MASTER>
        0    0    0    0    0    0    0    0   33    0   33    0

> <minimizedAffinity>
-6.13340

> <CNNscore>
0.2745675445

> <CNNaffinity>
5.7377061844

> <CNN_VS>
1.5753879547

> <CNNaffinity_variance>
0.1123029143

$$$$
