


 33 35  0  0  0  0  0  0  0  0999 V2000
   -8.8671    2.8456  -17.4782 C   0  0  0  0  0  0  0  0  0  0  0  0
   -8.6223    3.3704  -18.5985 O   0  0  0  0  0  0  0  0  0  0  0  0
  -10.2242    2.5703  -17.0999 N   0  0  0  0  0  0  0  0  0  0  0  0
  -10.3968    1.9048  -16.3131 H   0  0  0  0  0  0  0  0  0  0  0  0
   -8.0423    4.3238  -14.7676 C   0  0  0  0  0  0  0  0  0  0  0  0
   -7.3803    3.1451  -15.4020 C   0  0  0  0  0  0  0  0  0  0  0  0
   -6.3139    2.5522  -14.9179 O   0  0  0  0  0  0  0  0  0  0  0  0
   -5.9415    1.5581  -15.6710 N   0  0  0  0  0  0  0  0  0  0  0  0
   -6.8072    1.4966  -16.7017 C   0  0  0  0  0  0  0  0  0  0  0  0
   -7.7485    2.5076  -16.5732 C   0  0  0  0  0  0  0  0  0  0  0  0
   -6.7536    0.4526  -17.7435 C   0  0  0  0  0  0  0  0  0  0  0  0
   -6.1046    0.6982  -18.9736 C   0  0  0  0  0  0  0  0  0  0  0  0
   -5.4252    2.2753  -19.3650 Cl  0  0  0  0  0  0  0  0  0  0  0  0
   -6.0196   -0.3168  -19.9340 C   0  0  0  0  0  0  0  0  0  0  0  0
   -6.5823   -1.5695  -19.6861 C   0  0  0  0  0  0  0  0  0  0  0  0
   -7.2393   -1.8156  -18.4795 C   0  0  0  0  0  0  0  0  0  0  0  0
   -7.3322   -0.8124  -17.5080 C   0  0  0  0  0  0  0  0  0  0  0  0
   -8.1344   -1.1900  -15.9869 Cl  0  0  0  0  0  0  0  0  0  0  0  0
  -11.3668    3.1440  -17.8170 C   0  0  0  0  0  0  0  0  0  0  0  0
  -12.3851    2.0438  -18.1866 C   0  0  0  0  0  0  0  0  0  0  0  0
  -11.7392    0.7250  -18.1551 N   0  0  0  0  0  0  0  0  0  0  0  0
  -11.3278    0.3859  -19.5177 C   0  0  0  0  0  0  0  0  0  0  0  0
  -12.4582    0.7813  -20.4911 C   0  0  0  0  0  0  0  0  0  0  0  0
  -13.6217   -0.2285  -20.5346 C   0  0  0  0  0  0  0  0  0  0  0  0
  -11.9117    1.0059  -21.9108 C   0  0  0  0  0  0  0  0  0  0  0  0
  -13.1002    2.3521  -19.8469 S   0  0  0  0  0  0  0  0  0  0  0  0
  -12.4466    0.0288  -17.8215 H   0  0  0  0  0  0  0  0  0  0  0  0
  -10.8853   -1.0578  -19.6181 C   0  0  0  0  0  0  0  0  0  0  0  0
  -11.2865   -1.9882  -18.6626 O   0  0  0  0  0  0  0  0  0  0  0  0
  -10.1605   -1.4404  -20.5753 O   0  0  0  0  0  0  0  0  0  0  0  0
  -11.8620   -1.7217  -17.8729 H   0  0  0  0  0  0  0  0  0  0  0  0
  -12.0157    4.1864  -16.9461 C   0  0  0  0  0  0  0  0  0  0  0  0
  -12.2988    3.9343  -15.7857 O   0  0  0  0  0  0  0  0  0  0  0  0
  5  6  1  0  0  0
  6  7  1  0  0  0
  6 10  2  0  0  0
  7  8  1  0  0  0
  8  9  2  0  0  0
  9 10  1  0  0  0
  9 11  1  0  0  0
 10  1  1  0  0  0
  1  2  2  0  0  0
  1  3  1  0  0  0
  3 19  1  0  0  0
  3  4  1  0  0  0
 19 32  1  0  0  0
 19 20  1  0  0  0
 32 33  2  0  0  0
 20 21  1  0  0  0
 20 26  1  0  0  0
 21 22  1  0  0  0
 21 27  1  0  0  0
 22 28  1  0  0  0
 22 23  1  0  0  0
 28 29  1  0  0  0
 28 30  2  0  0  0
 29 31  1  0  0  0
 23 24  1  0  0  0
 23 25  1  0  0  0
 23 26  1  0  0  0
 11 12  2  0  0  0
 11 17  1  0  0  0
 12 13  1  0  0  0
 12 14  1  0  0  0
 14 15  2  0  0  0
 15 16  1  0  0  0
 16 17  2  0  0  0
 17 18  1  0  0  0
M  END
> <COMPND>
    ../0-casp/USpIc4.pdb 

> <AUTHOR>
    GENERATED BY OPEN BABEL 3.1.0

> <MASTER>
        0    0    0    0    0    0    0    0   49    0   49    0

> <minimizedAffinity>
-5.39295

> <CNNscore>
0.4352337122

> <CNNaffinity>
4.9348788261

> <CNN_VS>
2.1478257179

> <CNNaffinity_variance>
0.6447368860

$$$$



 33 35  0  0  0  0  0  0  0  0999 V2000
   -2.3421  -13.4873    8.5121 C   0  0  0  0  0  0  0  0  0  0  0  0
   -3.1326  -12.6101    8.9550 O   0  0  0  0  0  0  0  0  0  0  0  0
   -1.6049  -14.3116    9.4274 N   0  0  0  0  0  0  0  0  0  0  0  0
   -1.1740  -15.1930    9.0679 H   0  0  0  0  0  0  0  0  0  0  0  0
   -0.2595  -12.0311    6.5744 C   0  0  0  0  0  0  0  0  0  0  0  0
   -1.3023  -13.0341    6.2048 C   0  0  0  0  0  0  0  0  0  0  0  0
   -1.5218  -13.4483    4.9787 O   0  0  0  0  0  0  0  0  0  0  0  0
   -2.4908  -14.3164    4.9382 N   0  0  0  0  0  0  0  0  0  0  0  0
   -2.9294  -14.4790    6.2018 C   0  0  0  0  0  0  0  0  0  0  0  0
   -2.1958  -13.6643    7.0521 C   0  0  0  0  0  0  0  0  0  0  0  0
   -3.9867  -15.4386    6.5752 C   0  0  0  0  0  0  0  0  0  0  0  0
   -3.6601  -16.7681    6.9221 C   0  0  0  0  0  0  0  0  0  0  0  0
   -2.0082  -17.3719    6.8280 Cl  0  0  0  0  0  0  0  0  0  0  0  0
   -4.6680  -17.6543    7.3205 C   0  0  0  0  0  0  0  0  0  0  0  0
   -5.9976  -17.2332    7.3676 C   0  0  0  0  0  0  0  0  0  0  0  0
   -6.3309  -15.9256    7.0111 C   0  0  0  0  0  0  0  0  0  0  0  0
   -5.3355  -15.0264    6.6118 C   0  0  0  0  0  0  0  0  0  0  0  0
   -5.8062  -13.3770    6.2142 Cl  0  0  0  0  0  0  0  0  0  0  0  0
   -1.4896  -13.9868   10.8522 C   0  0  0  0  0  0  0  0  0  0  0  0
   -2.4532  -14.8569   11.6880 C   0  0  0  0  0  0  0  0  0  0  0  0
   -3.8313  -14.3707   11.5406 N   0  0  0  0  0  0  0  0  0  0  0  0
   -4.1262  -13.4865   12.6686 C   0  0  0  0  0  0  0  0  0  0  0  0
   -3.5561  -14.1171   13.9566 C   0  0  0  0  0  0  0  0  0  0  0  0
   -4.4350  -15.2410   14.5394 C   0  0  0  0  0  0  0  0  0  0  0  0
   -3.3019  -13.0463   15.0305 C   0  0  0  0  0  0  0  0  0  0  0  0
   -1.9701  -14.8449   13.4571 S   0  0  0  0  0  0  0  0  0  0  0  0
   -4.4696  -15.2000   11.5721 H   0  0  0  0  0  0  0  0  0  0  0  0
   -5.5990  -13.1447   12.7322 C   0  0  0  0  0  0  0  0  0  0  0  0
   -6.5371  -13.9338   12.0712 O   0  0  0  0  0  0  0  0  0  0  0  0
   -5.9976  -12.1505   13.3961 O   0  0  0  0  0  0  0  0  0  0  0  0
   -6.2593  -14.7367   11.5199 H   0  0  0  0  0  0  0  0  0  0  0  0
   -0.0673  -14.2125   11.2904 C   0  0  0  0  0  0  0  0  0  0  0  0
    0.7629  -13.3244   11.1794 O   0  0  0  0  0  0  0  0  0  0  0  0
  5  6  1  0  0  0
  6  7  1  0  0  0
  6 10  2  0  0  0
  7  8  1  0  0  0
  8  9  2  0  0  0
  9 10  1  0  0  0
  9 11  1  0  0  0
 10  1  1  0  0  0
  1  2  2  0  0  0
  1  3  1  0  0  0
  3 19  1  0  0  0
  3  4  1  0  0  0
 19 32  1  0  0  0
 19 20  1  0  0  0
 32 33  2  0  0  0
 20 21  1  0  0  0
 20 26  1  0  0  0
 21 22  1  0  0  0
 21 27  1  0  0  0
 22 28  1  0  0  0
 22 23  1  0  0  0
 28 29  1  0  0  0
 28 30  2  0  0  0
 29 31  1  0  0  0
 23 24  1  0  0  0
 23 25  1  0  0  0
 23 26  1  0  0  0
 11 12  2  0  0  0
 11 17  1  0  0  0
 12 13  1  0  0  0
 12 14  1  0  0  0
 14 15  2  0  0  0
 15 16  1  0  0  0
 16 17  2  0  0  0
 17 18  1  0  0  0
M  END
> <COMPND>
    ../0-casp/USpIc4.pdb 

> <AUTHOR>
    GENERATED BY OPEN BABEL 3.1.0

> <MASTER>
        0    0    0    0    0    0    0    0   49    0   49    0

> <minimizedAffinity>
-5.99496

> <CNNscore>
0.4034971595

> <CNNaffinity>
5.0098538399

> <CNN_VS>
2.0214617252

> <CNNaffinity_variance>
0.2804704309

$$$$



 33 35  0  0  0  0  0  0  0  0999 V2000
   -2.6480  -13.3316    8.4142 C   0  0  0  0  0  0  0  0  0  0  0  0
   -3.1938  -12.2399    8.7317 O   0  0  0  0  0  0  0  0  0  0  0  0
   -2.3147  -14.2863    9.4331 N   0  0  0  0  0  0  0  0  0  0  0  0
   -2.1213  -15.2726    9.1476 H   0  0  0  0  0  0  0  0  0  0  0  0
   -0.4114  -12.0016    6.5592 C   0  0  0  0  0  0  0  0  0  0  0  0
   -1.4100  -13.0449    6.1791 C   0  0  0  0  0  0  0  0  0  0  0  0
   -1.5164  -13.5564    4.9749 O   0  0  0  0  0  0  0  0  0  0  0  0
   -2.4718  -14.4385    4.9175 N   0  0  0  0  0  0  0  0  0  0  0  0
   -3.0200  -14.5083    6.1463 C   0  0  0  0  0  0  0  0  0  0  0  0
   -2.3710  -13.6197    6.9913 C   0  0  0  0  0  0  0  0  0  0  0  0
   -4.0996  -15.4507    6.4994 C   0  0  0  0  0  0  0  0  0  0  0  0
   -5.4489  -15.0334    6.4898 C   0  0  0  0  0  0  0  0  0  0  0  0
   -5.9005  -13.3629    6.1620 Cl  0  0  0  0  0  0  0  0  0  0  0  0
   -6.4662  -15.9502    6.7802 C   0  0  0  0  0  0  0  0  0  0  0  0
   -6.1533  -17.2745    7.0894 C   0  0  0  0  0  0  0  0  0  0  0  0
   -4.8216  -17.6913    7.1168 C   0  0  0  0  0  0  0  0  0  0  0  0
   -3.7924  -16.7879    6.8276 C   0  0  0  0  0  0  0  0  0  0  0  0
   -2.1332  -17.3772    6.8346 Cl  0  0  0  0  0  0  0  0  0  0  0  0
   -2.2960  -13.9353   10.8563 C   0  0  0  0  0  0  0  0  0  0  0  0
   -2.9960  -15.0265   11.6949 C   0  0  0  0  0  0  0  0  0  0  0  0
   -4.1306  -15.5875   10.9497 N   0  0  0  0  0  0  0  0  0  0  0  0
   -5.3460  -14.8960   11.3806 C   0  0  0  0  0  0  0  0  0  0  0  0
   -5.3057  -14.7292   12.9143 C   0  0  0  0  0  0  0  0  0  0  0  0
   -5.6935  -16.0045   13.6881 C   0  0  0  0  0  0  0  0  0  0  0  0
   -6.1926  -13.5572   13.3663 C   0  0  0  0  0  0  0  0  0  0  0  0
   -3.5735  -14.3443   13.2962 S   0  0  0  0  0  0  0  0  0  0  0  0
   -4.2035  -16.6034   11.1922 H   0  0  0  0  0  0  0  0  0  0  0  0
   -6.5880  -15.5812   10.8532 C   0  0  0  0  0  0  0  0  0  0  0  0
   -6.5688  -16.9389   10.5437 O   0  0  0  0  0  0  0  0  0  0  0  0
   -7.6598  -14.9360   10.7012 O   0  0  0  0  0  0  0  0  0  0  0  0
   -5.7268  -17.4929   10.6431 H   0  0  0  0  0  0  0  0  0  0  0  0
   -0.8667  -13.7714   11.2994 C   0  0  0  0  0  0  0  0  0  0  0  0
   -0.5817  -12.9919   12.1946 O   0  0  0  0  0  0  0  0  0  0  0  0
  5  6  1  0  0  0
  6  7  1  0  0  0
  6 10  2  0  0  0
  7  8  1  0  0  0
  8  9  2  0  0  0
  9 10  1  0  0  0
  9 11  1  0  0  0
 10  1  1  0  0  0
  1  2  2  0  0  0
  1  3  1  0  0  0
  3 19  1  0  0  0
  3  4  1  0  0  0
 19 32  1  0  0  0
 19 20  1  0  0  0
 32 33  2  0  0  0
 20 21  1  0  0  0
 20 26  1  0  0  0
 21 22  1  0  0  0
 21 27  1  0  0  0
 22 28  1  0  0  0
 22 23  1  0  0  0
 28 29  1  0  0  0
 28 30  2  0  0  0
 29 31  1  0  0  0
 23 24  1  0  0  0
 23 25  1  0  0  0
 23 26  1  0  0  0
 11 12  2  0  0  0
 11 17  1  0  0  0
 12 13  1  0  0  0
 12 14  1  0  0  0
 14 15  2  0  0  0
 15 16  1  0  0  0
 16 17  2  0  0  0
 17 18  1  0  0  0
M  END
> <COMPND>
    ../0-casp/USpIc4.pdb 

> <AUTHOR>
    GENERATED BY OPEN BABEL 3.1.0

> <MASTER>
        0    0    0    0    0    0    0    0   49    0   49    0

> <minimizedAffinity>
-5.59996

> <CNNscore>
0.3715379536

> <CNNaffinity>
4.7186245918

> <CNN_VS>
1.7531480789

> <CNNaffinity_variance>
0.5117551088

$$$$



 33 35  0  0  0  0  0  0  0  0999 V2000
   12.4034   13.2186   -5.1838 C   0  0  0  0  0  0  0  0  0  0  0  0
   13.4877   13.8095   -4.9279 O   0  0  0  0  0  0  0  0  0  0  0  0
   12.0627   12.0149   -4.4797 N   0  0  0  0  0  0  0  0  0  0  0  0
   11.0694   11.6913   -4.4979 H   0  0  0  0  0  0  0  0  0  0  0  0
   10.3756   15.6631   -4.8307 C   0  0  0  0  0  0  0  0  0  0  0  0
   10.6039   14.8362   -6.0531 C   0  0  0  0  0  0  0  0  0  0  0  0
    9.9563   15.0003   -7.1830 O   0  0  0  0  0  0  0  0  0  0  0  0
   10.3450   14.1419   -8.0809 N   0  0  0  0  0  0  0  0  0  0  0  0
   11.2951   13.3756   -7.5104 C   0  0  0  0  0  0  0  0  0  0  0  0
   11.4890   13.7832   -6.1985 C   0  0  0  0  0  0  0  0  0  0  0  0
   12.0300   12.3217   -8.2367 C   0  0  0  0  0  0  0  0  0  0  0  0
   11.6314   10.9703   -8.1385 C   0  0  0  0  0  0  0  0  0  0  0  0
   10.3196   10.4653   -7.0773 Cl  0  0  0  0  0  0  0  0  0  0  0  0
   12.3077    9.9871   -8.8704 C   0  0  0  0  0  0  0  0  0  0  0  0
   13.3820   10.3341   -9.6906 C   0  0  0  0  0  0  0  0  0  0  0  0
   13.7925   11.6650   -9.7810 C   0  0  0  0  0  0  0  0  0  0  0  0
   13.1266   12.6607   -9.0570 C   0  0  0  0  0  0  0  0  0  0  0  0
   13.6587   14.3289   -9.2411 Cl  0  0  0  0  0  0  0  0  0  0  0  0
   13.0466   11.2647   -3.6935 C   0  0  0  0  0  0  0  0  0  0  0  0
   12.3560   10.5044   -2.5407 C   0  0  0  0  0  0  0  0  0  0  0  0
   11.3133   11.3425   -1.9345 N   0  0  0  0  0  0  0  0  0  0  0  0
   11.8842   12.0027   -0.7601 C   0  0  0  0  0  0  0  0  0  0  0  0
   12.7439   10.9821    0.0150 C   0  0  0  0  0  0  0  0  0  0  0  0
   11.9223   10.0166    0.8914 C   0  0  0  0  0  0  0  0  0  0  0  0
   13.8027   11.6915    0.8752 C   0  0  0  0  0  0  0  0  0  0  0  0
   13.5782   10.0057   -1.2676 S   0  0  0  0  0  0  0  0  0  0  0  0
   10.5305   10.7150   -1.6350 H   0  0  0  0  0  0  0  0  0  0  0  0
   10.8140   12.6825    0.0663 C   0  0  0  0  0  0  0  0  0  0  0  0
    9.4668   12.5082   -0.2405 O   0  0  0  0  0  0  0  0  0  0  0  0
   11.1269   13.4030    1.0517 O   0  0  0  0  0  0  0  0  0  0  0  0
    9.1717   11.9445   -1.0285 H   0  0  0  0  0  0  0  0  0  0  0  0
   13.7633   10.3007   -4.6008 C   0  0  0  0  0  0  0  0  0  0  0  0
   14.9479   10.4529   -4.8536 O   0  0  0  0  0  0  0  0  0  0  0  0
  5  6  1  0  0  0
  6  7  1  0  0  0
  6 10  2  0  0  0
  7  8  1  0  0  0
  8  9  2  0  0  0
  9 10  1  0  0  0
  9 11  1  0  0  0
 10  1  1  0  0  0
  1  2  2  0  0  0
  1  3  1  0  0  0
  3 19  1  0  0  0
  3  4  1  0  0  0
 19 32  1  0  0  0
 19 20  1  0  0  0
 32 33  2  0  0  0
 20 21  1  0  0  0
 20 26  1  0  0  0
 21 22  1  0  0  0
 21 27  1  0  0  0
 22 28  1  0  0  0
 22 23  1  0  0  0
 28 29  1  0  0  0
 28 30  2  0  0  0
 29 31  1  0  0  0
 23 24  1  0  0  0
 23 25  1  0  0  0
 23 26  1  0  0  0
 11 12  2  0  0  0
 11 17  1  0  0  0
 12 13  1  0  0  0
 12 14  1  0  0  0
 14 15  2  0  0  0
 15 16  1  0  0  0
 16 17  2  0  0  0
 17 18  1  0  0  0
M  END
> <COMPND>
    ../0-casp/USpIc4.pdb 

> <AUTHOR>
    GENERATED BY OPEN BABEL 3.1.0

> <MASTER>
        0    0    0    0    0    0    0    0   49    0   49    0

> <minimizedAffinity>
-5.43570

> <CNNscore>
0.3633710146

> <CNNaffinity>
4.8903627396

> <CNN_VS>
1.7770160437

> <CNNaffinity_variance>
0.6606396437

$$$$



 33 35  0  0  0  0  0  0  0  0999 V2000
   23.0339    0.9441    1.8000 C   0  0  0  0  0  0  0  0  0  0  0  0
   23.1926    1.2964    3.0005 O   0  0  0  0  0  0  0  0  0  0  0  0
   23.9682    1.3763    0.7996 N   0  0  0  0  0  0  0  0  0  0  0  0
   23.9873    0.8720   -0.1153 H   0  0  0  0  0  0  0  0  0  0  0  0
   22.8041   -2.2220    2.1679 C   0  0  0  0  0  0  0  0  0  0  0  0
   21.7862   -1.2942    1.5907 C   0  0  0  0  0  0  0  0  0  0  0  0
   20.6236   -1.6800    1.1190 O   0  0  0  0  0  0  0  0  0  0  0  0
   19.9354   -0.6703    0.6707 N   0  0  0  0  0  0  0  0  0  0  0  0
   20.6852    0.4335    0.8571 C   0  0  0  0  0  0  0  0  0  0  0  0
   21.8921    0.0769    1.4412 C   0  0  0  0  0  0  0  0  0  0  0  0
   20.2177    1.7950    0.5315 C   0  0  0  0  0  0  0  0  0  0  0  0
   19.2921    2.4560    1.3688 C   0  0  0  0  0  0  0  0  0  0  0  0
   18.5773    1.6623    2.7692 Cl  0  0  0  0  0  0  0  0  0  0  0  0
   18.8939    3.7652    1.0740 C   0  0  0  0  0  0  0  0  0  0  0  0
   19.3999    4.4188   -0.0503 C   0  0  0  0  0  0  0  0  0  0  0  0
   20.3027    3.7672   -0.8918 C   0  0  0  0  0  0  0  0  0  0  0  0
   20.7124    2.4586   -0.6109 C   0  0  0  0  0  0  0  0  0  0  0  0
   21.8858    1.6994   -1.6819 Cl  0  0  0  0  0  0  0  0  0  0  0  0
   24.9291    2.4564    1.0427 C   0  0  0  0  0  0  0  0  0  0  0  0
   26.0974    2.3818    0.0360 C   0  0  0  0  0  0  0  0  0  0  0  0
   26.6673    1.0282    0.0213 N   0  0  0  0  0  0  0  0  0  0  0  0
   27.8269    1.0118    0.9135 C   0  0  0  0  0  0  0  0  0  0  0  0
   28.6412    2.3042    0.6941 C   0  0  0  0  0  0  0  0  0  0  0  0
   29.5382    2.2679   -0.5587 C   0  0  0  0  0  0  0  0  0  0  0  0
   29.4902    2.6393    1.9316 C   0  0  0  0  0  0  0  0  0  0  0  0
   27.3972    3.6047    0.4578 S   0  0  0  0  0  0  0  0  0  0  0  0
   26.9778    0.8210   -0.9570 H   0  0  0  0  0  0  0  0  0  0  0  0
   28.6215   -0.2674    0.7634 C   0  0  0  0  0  0  0  0  0  0  0  0
   29.3787   -0.7578    1.8243 O   0  0  0  0  0  0  0  0  0  0  0  0
   28.5969   -0.9134   -0.3183 O   0  0  0  0  0  0  0  0  0  0  0  0
   29.4331   -0.2660    2.7081 H   0  0  0  0  0  0  0  0  0  0  0  0
   24.2182    3.7778    0.9223 C   0  0  0  0  0  0  0  0  0  0  0  0
   23.8181    4.1688   -0.1628 O   0  0  0  0  0  0  0  0  0  0  0  0
  5  6  1  0  0  0
  6  7  1  0  0  0
  6 10  2  0  0  0
  7  8  1  0  0  0
  8  9  2  0  0  0
  9 10  1  0  0  0
  9 11  1  0  0  0
 10  1  1  0  0  0
  1  2  2  0  0  0
  1  3  1  0  0  0
  3 19  1  0  0  0
  3  4  1  0  0  0
 19 32  1  0  0  0
 19 20  1  0  0  0
 32 33  2  0  0  0
 20 21  1  0  0  0
 20 26  1  0  0  0
 21 22  1  0  0  0
 21 27  1  0  0  0
 22 28  1  0  0  0
 22 23  1  0  0  0
 28 29  1  0  0  0
 28 30  2  0  0  0
 29 31  1  0  0  0
 23 24  1  0  0  0
 23 25  1  0  0  0
 23 26  1  0  0  0
 11 12  2  0  0  0
 11 17  1  0  0  0
 12 13  1  0  0  0
 12 14  1  0  0  0
 14 15  2  0  0  0
 15 16  1  0  0  0
 16 17  2  0  0  0
 17 18  1  0  0  0
M  END
> <COMPND>
    ../0-casp/USpIc4.pdb 

> <AUTHOR>
    GENERATED BY OPEN BABEL 3.1.0

> <MASTER>
        0    0    0    0    0    0    0    0   49    0   49    0

> <minimizedAffinity>
-5.30208

> <CNNscore>
0.2989608645

> <CNNaffinity>
4.7131023407

> <CNN_VS>
1.4090331793

> <CNNaffinity_variance>
0.2898016572

$$$$



 33 35  0  0  0  0  0  0  0  0999 V2000
    0.3661  -13.6960    9.0129 C   0  0  0  0  0  0  0  0  0  0  0  0
   -0.2913  -13.6616   10.0886 O   0  0  0  0  0  0  0  0  0  0  0  0
    1.6144  -14.4030    8.9613 N   0  0  0  0  0  0  0  0  0  0  0  0
    2.0070  -14.6531    8.0258 H   0  0  0  0  0  0  0  0  0  0  0  0
    1.8698  -11.5860    7.1424 C   0  0  0  0  0  0  0  0  0  0  0  0
    0.4743  -12.0986    7.0012 C   0  0  0  0  0  0  0  0  0  0  0  0
   -0.3582  -11.7146    6.0619 O   0  0  0  0  0  0  0  0  0  0  0  0
   -1.5089  -12.3122    6.1753 N   0  0  0  0  0  0  0  0  0  0  0  0
   -1.4268  -13.1290    7.2438 C   0  0  0  0  0  0  0  0  0  0  0  0
   -0.1664  -13.0174    7.8128 C   0  0  0  0  0  0  0  0  0  0  0  0
   -2.5188  -14.0303    7.6603 C   0  0  0  0  0  0  0  0  0  0  0  0
   -3.5992  -13.5426    8.4280 C   0  0  0  0  0  0  0  0  0  0  0  0
   -3.6482  -11.8807    9.0092 Cl  0  0  0  0  0  0  0  0  0  0  0  0
   -4.6519  -14.3975    8.7755 C   0  0  0  0  0  0  0  0  0  0  0  0
   -4.6349  -15.7342    8.3751 C   0  0  0  0  0  0  0  0  0  0  0  0
   -3.5632  -16.2282    7.6298 C   0  0  0  0  0  0  0  0  0  0  0  0
   -2.5033  -15.3867    7.2727 C   0  0  0  0  0  0  0  0  0  0  0  0
   -1.1980  -16.0512    6.2956 Cl  0  0  0  0  0  0  0  0  0  0  0  0
    2.3191  -14.8333   10.1725 C   0  0  0  0  0  0  0  0  0  0  0  0
    3.0789  -16.1535    9.9198 C   0  0  0  0  0  0  0  0  0  0  0  0
    2.7202  -16.7001    8.6046 N   0  0  0  0  0  0  0  0  0  0  0  0
    1.6621  -17.6924    8.7961 C   0  0  0  0  0  0  0  0  0  0  0  0
    2.0020  -18.5487   10.0342 C   0  0  0  0  0  0  0  0  0  0  0  0
    3.0523  -19.6435    9.7627 C   0  0  0  0  0  0  0  0  0  0  0  0
    0.7351  -19.1813   10.6335 C   0  0  0  0  0  0  0  0  0  0  0  0
    2.7048  -17.3794   11.2314 S   0  0  0  0  0  0  0  0  0  0  0  0
    3.5691  -17.1683    8.2089 H   0  0  0  0  0  0  0  0  0  0  0  0
    1.4116  -18.4843    7.5311 C   0  0  0  0  0  0  0  0  0  0  0  0
    0.2283  -19.2005    7.3680 O   0  0  0  0  0  0  0  0  0  0  0  0
    2.2635  -18.4944    6.6026 O   0  0  0  0  0  0  0  0  0  0  0  0
   -0.4792  -19.2262    8.0923 H   0  0  0  0  0  0  0  0  0  0  0  0
    3.2772  -13.7499   10.5901 C   0  0  0  0  0  0  0  0  0  0  0  0
    2.8606  -12.6991   11.0511 O   0  0  0  0  0  0  0  0  0  0  0  0
  5  6  1  0  0  0
  6  7  1  0  0  0
  6 10  2  0  0  0
  7  8  1  0  0  0
  8  9  2  0  0  0
  9 10  1  0  0  0
  9 11  1  0  0  0
 10  1  1  0  0  0
  1  2  2  0  0  0
  1  3  1  0  0  0
  3 19  1  0  0  0
  3  4  1  0  0  0
 19 32  1  0  0  0
 19 20  1  0  0  0
 32 33  2  0  0  0
 20 21  1  0  0  0
 20 26  1  0  0  0
 21 22  1  0  0  0
 21 27  1  0  0  0
 22 28  1  0  0  0
 22 23  1  0  0  0
 28 29  1  0  0  0
 28 30  2  0  0  0
 29 31  1  0  0  0
 23 24  1  0  0  0
 23 25  1  0  0  0
 23 26  1  0  0  0
 11 12  2  0  0  0
 11 17  1  0  0  0
 12 13  1  0  0  0
 12 14  1  0  0  0
 14 15  2  0  0  0
 15 16  1  0  0  0
 16 17  2  0  0  0
 17 18  1  0  0  0
M  END
> <COMPND>
    ../0-casp/USpIc4.pdb 

> <AUTHOR>
    GENERATED BY OPEN BABEL 3.1.0

> <MASTER>
        0    0    0    0    0    0    0    0   49    0   49    0

> <minimizedAffinity>
-5.61037

> <CNNscore>
0.2919509411

> <CNNaffinity>
5.0089211464

> <CNN_VS>
1.4623591900

> <CNNaffinity_variance>
0.1887212098

$$$$



 33 35  0  0  0  0  0  0  0  0999 V2000
    6.2080   -3.3935  -22.1144 C   0  0  0  0  0  0  0  0  0  0  0  0
    6.3292   -4.5526  -22.5964 O   0  0  0  0  0  0  0  0  0  0  0  0
    7.1402   -2.3659  -22.4828 N   0  0  0  0  0  0  0  0  0  0  0  0
    6.8810   -1.3700  -22.3019 H   0  0  0  0  0  0  0  0  0  0  0  0
    3.3267   -2.2132  -22.8337 C   0  0  0  0  0  0  0  0  0  0  0  0
    3.8485   -2.5883  -21.4858 C   0  0  0  0  0  0  0  0  0  0  0  0
    3.1684   -2.4548  -20.3710 O   0  0  0  0  0  0  0  0  0  0  0  0
    3.8615   -2.8505  -19.3428 N   0  0  0  0  0  0  0  0  0  0  0  0
    5.0570   -3.2636  -19.8069 C   0  0  0  0  0  0  0  0  0  0  0  0
    5.0959   -3.1049  -21.1846 C   0  0  0  0  0  0  0  0  0  0  0  0
    6.1029   -3.8477  -18.9448 C   0  0  0  0  0  0  0  0  0  0  0  0
    6.0498   -5.2092  -18.5732 C   0  0  0  0  0  0  0  0  0  0  0  0
    4.6969   -6.2420  -19.0262 Cl  0  0  0  0  0  0  0  0  0  0  0  0
    7.0737   -5.7618  -17.7946 C   0  0  0  0  0  0  0  0  0  0  0  0
    8.1438   -4.9708  -17.3746 C   0  0  0  0  0  0  0  0  0  0  0  0
    8.1959   -3.6205  -17.7240 C   0  0  0  0  0  0  0  0  0  0  0  0
    7.1813   -3.0525  -18.5030 C   0  0  0  0  0  0  0  0  0  0  0  0
    7.3187   -1.3552  -18.9507 Cl  0  0  0  0  0  0  0  0  0  0  0  0
    8.4085   -2.6658  -23.1539 C   0  0  0  0  0  0  0  0  0  0  0  0
    9.1799   -3.7655  -22.3925 C   0  0  0  0  0  0  0  0  0  0  0  0
   10.3108   -3.1775  -21.6627 N   0  0  0  0  0  0  0  0  0  0  0  0
   11.5109   -3.3228  -22.4872 C   0  0  0  0  0  0  0  0  0  0  0  0
   11.5151   -4.7327  -23.1148 C   0  0  0  0  0  0  0  0  0  0  0  0
   11.9800   -5.8406  -22.1495 C   0  0  0  0  0  0  0  0  0  0  0  0
   12.3682   -4.7659  -24.3936 C   0  0  0  0  0  0  0  0  0  0  0  0
    9.7824   -5.0552  -23.5487 S   0  0  0  0  0  0  0  0  0  0  0  0
   10.4330   -3.7150  -20.7725 H   0  0  0  0  0  0  0  0  0  0  0  0
   12.7614   -2.9751  -21.7090 C   0  0  0  0  0  0  0  0  0  0  0  0
   13.9778   -2.8044  -22.3654 O   0  0  0  0  0  0  0  0  0  0  0  0
   12.7158   -2.8210  -20.4592 O   0  0  0  0  0  0  0  0  0  0  0  0
   14.0607   -2.9269  -23.3673 H   0  0  0  0  0  0  0  0  0  0  0  0
    8.1215   -3.1086  -24.5637 C   0  0  0  0  0  0  0  0  0  0  0  0
    7.4156   -2.4310  -25.2937 O   0  0  0  0  0  0  0  0  0  0  0  0
  5  6  1  0  0  0
  6  7  1  0  0  0
  6 10  2  0  0  0
  7  8  1  0  0  0
  8  9  2  0  0  0
  9 10  1  0  0  0
  9 11  1  0  0  0
 10  1  1  0  0  0
  1  2  2  0  0  0
  1  3  1  0  0  0
  3 19  1  0  0  0
  3  4  1  0  0  0
 19 32  1  0  0  0
 19 20  1  0  0  0
 32 33  2  0  0  0
 20 21  1  0  0  0
 20 26  1  0  0  0
 21 22  1  0  0  0
 21 27  1  0  0  0
 22 28  1  0  0  0
 22 23  1  0  0  0
 28 29  1  0  0  0
 28 30  2  0  0  0
 29 31  1  0  0  0
 23 24  1  0  0  0
 23 25  1  0  0  0
 23 26  1  0  0  0
 11 12  2  0  0  0
 11 17  1  0  0  0
 12 13  1  0  0  0
 12 14  1  0  0  0
 14 15  2  0  0  0
 15 16  1  0  0  0
 16 17  2  0  0  0
 17 18  1  0  0  0
M  END
> <COMPND>
    ../0-casp/USpIc4.pdb 

> <AUTHOR>
    GENERATED BY OPEN BABEL 3.1.0

> <MASTER>
        0    0    0    0    0    0    0    0   49    0   49    0

> <minimizedAffinity>
-5.46688

> <CNNscore>
0.2725103796

> <CNNaffinity>
4.8312482834

> <CNN_VS>
1.3165652752

> <CNNaffinity_variance>
0.7725242376

$$$$



 33 35  0  0  0  0  0  0  0  0999 V2000
   19.3134    6.0063    1.8784 C   0  0  0  0  0  0  0  0  0  0  0  0
   20.1345    6.9630    1.8482 O   0  0  0  0  0  0  0  0  0  0  0  0
   18.9697    5.3996    3.1332 N   0  0  0  0  0  0  0  0  0  0  0  0
   18.1089    4.8094    3.1819 H   0  0  0  0  0  0  0  0  0  0  0  0
   17.2511    7.5690    0.0030 C   0  0  0  0  0  0  0  0  0  0  0  0
   17.8061    6.1969   -0.1958 C   0  0  0  0  0  0  0  0  0  0  0  0
   17.4870    5.4132   -1.1993 O   0  0  0  0  0  0  0  0  0  0  0  0
   18.1090    4.2722   -1.1258 N   0  0  0  0  0  0  0  0  0  0  0  0
   18.8743    4.3095   -0.0174 C   0  0  0  0  0  0  0  0  0  0  0  0
   18.7040    5.5306    0.6187 C   0  0  0  0  0  0  0  0  0  0  0  0
   19.7843    3.2162    0.3759 C   0  0  0  0  0  0  0  0  0  0  0  0
   19.3688    2.2337    1.3014 C   0  0  0  0  0  0  0  0  0  0  0  0
   17.8027    2.3182    2.1029 Cl  0  0  0  0  0  0  0  0  0  0  0  0
   20.2248    1.1756    1.6291 C   0  0  0  0  0  0  0  0  0  0  0  0
   21.4928    1.0913    1.0527 C   0  0  0  0  0  0  0  0  0  0  0  0
   21.9174    2.0667    0.1492 C   0  0  0  0  0  0  0  0  0  0  0  0
   21.0737    3.1306   -0.1904 C   0  0  0  0  0  0  0  0  0  0  0  0
   21.6433    4.3095   -1.3676 Cl  0  0  0  0  0  0  0  0  0  0  0  0
   19.7509    5.6297    4.3520 C   0  0  0  0  0  0  0  0  0  0  0  0
   18.8875    5.3780    5.6071 C   0  0  0  0  0  0  0  0  0  0  0  0
   17.4691    5.6027    5.2990 N   0  0  0  0  0  0  0  0  0  0  0  0
   17.1255    6.9670    5.7009 C   0  0  0  0  0  0  0  0  0  0  0  0
   17.7795    7.2622    7.0673 C   0  0  0  0  0  0  0  0  0  0  0  0
   17.0163    6.6611    8.2638 C   0  0  0  0  0  0  0  0  0  0  0  0
   17.9651    8.7743    7.2760 C   0  0  0  0  0  0  0  0  0  0  0  0
   19.4103    6.4698    6.9847 S   0  0  0  0  0  0  0  0  0  0  0  0
   16.9064    4.9219    5.8615 H   0  0  0  0  0  0  0  0  0  0  0  0
   15.6304    7.1968    5.6546 C   0  0  0  0  0  0  0  0  0  0  0  0
   14.7542    6.1231    5.5161 O   0  0  0  0  0  0  0  0  0  0  0  0
   15.1579    8.3606    5.7554 O   0  0  0  0  0  0  0  0  0  0  0  0
   15.0918    5.1727    5.4236 H   0  0  0  0  0  0  0  0  0  0  0  0
   20.9452    4.7132    4.3462 C   0  0  0  0  0  0  0  0  0  0  0  0
   22.0566    5.1466    4.0872 O   0  0  0  0  0  0  0  0  0  0  0  0
  5  6  1  0  0  0
  6  7  1  0  0  0
  6 10  2  0  0  0
  7  8  1  0  0  0
  8  9  2  0  0  0
  9 10  1  0  0  0
  9 11  1  0  0  0
 10  1  1  0  0  0
  1  2  2  0  0  0
  1  3  1  0  0  0
  3 19  1  0  0  0
  3  4  1  0  0  0
 19 32  1  0  0  0
 19 20  1  0  0  0
 32 33  2  0  0  0
 20 21  1  0  0  0
 20 26  1  0  0  0
 21 22  1  0  0  0
 21 27  1  0  0  0
 22 28  1  0  0  0
 22 23  1  0  0  0
 28 29  1  0  0  0
 28 30  2  0  0  0
 29 31  1  0  0  0
 23 24  1  0  0  0
 23 25  1  0  0  0
 23 26  1  0  0  0
 11 12  2  0  0  0
 11 17  1  0  0  0
 12 13  1  0  0  0
 12 14  1  0  0  0
 14 15  2  0  0  0
 15 16  1  0  0  0
 16 17  2  0  0  0
 17 18  1  0  0  0
M  END
> <COMPND>
    ../0-casp/USpIc4.pdb 

> <AUTHOR>
    GENERATED BY OPEN BABEL 3.1.0

> <MASTER>
        0    0    0    0    0    0    0    0   49    0   49    0

> <minimizedAffinity>
-5.16898

> <CNNscore>
0.2671405673

> <CNNaffinity>
4.6701231003

> <CNN_VS>
1.2475793362

> <CNNaffinity_variance>
0.4374384880

$$$$



 33 35  0  0  0  0  0  0  0  0999 V2000
    8.5913   -6.1334  -19.4576 C   0  0  0  0  0  0  0  0  0  0  0  0
    8.0774   -6.8487  -20.3602 O   0  0  0  0  0  0  0  0  0  0  0  0
    9.8097   -5.4206  -19.7186 N   0  0  0  0  0  0  0  0  0  0  0  0
   10.0750   -4.6371  -19.0802 H   0  0  0  0  0  0  0  0  0  0  0  0
    8.8711   -8.1152  -16.9664 C   0  0  0  0  0  0  0  0  0  0  0  0
    8.0322   -6.8835  -17.0628 C   0  0  0  0  0  0  0  0  0  0  0  0
    7.2504   -6.4496  -16.1018 O   0  0  0  0  0  0  0  0  0  0  0  0
    6.6286   -5.3611  -16.4521 N   0  0  0  0  0  0  0  0  0  0  0  0
    7.0221   -5.0669  -17.7067 C   0  0  0  0  0  0  0  0  0  0  0  0
    7.9223   -6.0277  -18.1440 C   0  0  0  0  0  0  0  0  0  0  0  0
    6.5812   -3.8594  -18.4319 C   0  0  0  0  0  0  0  0  0  0  0  0
    7.3683   -2.6868  -18.4196 C   0  0  0  0  0  0  0  0  0  0  0  0
    8.8449   -2.5711  -17.4665 Cl  0  0  0  0  0  0  0  0  0  0  0  0
    6.9619   -1.5645  -19.1510 C   0  0  0  0  0  0  0  0  0  0  0  0
    5.7759   -1.5945  -19.8857 C   0  0  0  0  0  0  0  0  0  0  0  0
    4.9842   -2.7439  -19.8904 C   0  0  0  0  0  0  0  0  0  0  0  0
    5.3765   -3.8752  -19.1658 C   0  0  0  0  0  0  0  0  0  0  0  0
    4.3621   -5.3124  -19.2411 Cl  0  0  0  0  0  0  0  0  0  0  0  0
   10.6554   -5.7177  -20.8785 C   0  0  0  0  0  0  0  0  0  0  0  0
   11.2040   -4.4148  -21.4996 C   0  0  0  0  0  0  0  0  0  0  0  0
   10.0978   -3.5075  -21.8318 N   0  0  0  0  0  0  0  0  0  0  0  0
    9.7665   -3.6905  -23.2453 C   0  0  0  0  0  0  0  0  0  0  0  0
   11.0771   -3.8014  -24.0526 C   0  0  0  0  0  0  0  0  0  0  0  0
   11.7512   -2.4438  -24.3318 C   0  0  0  0  0  0  0  0  0  0  0  0
   10.8493   -4.5505  -25.3760 C   0  0  0  0  0  0  0  0  0  0  0  0
   12.1906   -4.7770  -23.0024 S   0  0  0  0  0  0  0  0  0  0  0  0
   10.4291   -2.5265  -21.6761 H   0  0  0  0  0  0  0  0  0  0  0  0
    8.8143   -2.6201  -23.7327 C   0  0  0  0  0  0  0  0  0  0  0  0
    8.7154   -1.4034  -23.0622 O   0  0  0  0  0  0  0  0  0  0  0  0
    8.1092   -2.8095  -24.7598 O   0  0  0  0  0  0  0  0  0  0  0  0
    9.2575   -1.2128  -22.2282 H   0  0  0  0  0  0  0  0  0  0  0  0
   11.7889   -6.6064  -20.4409 C   0  0  0  0  0  0  0  0  0  0  0  0
   11.5647   -7.7176  -19.9880 O   0  0  0  0  0  0  0  0  0  0  0  0
  5  6  1  0  0  0
  6  7  1  0  0  0
  6 10  2  0  0  0
  7  8  1  0  0  0
  8  9  2  0  0  0
  9 10  1  0  0  0
  9 11  1  0  0  0
 10  1  1  0  0  0
  1  2  2  0  0  0
  1  3  1  0  0  0
  3 19  1  0  0  0
  3  4  1  0  0  0
 19 32  1  0  0  0
 19 20  1  0  0  0
 32 33  2  0  0  0
 20 21  1  0  0  0
 20 26  1  0  0  0
 21 22  1  0  0  0
 21 27  1  0  0  0
 22 28  1  0  0  0
 22 23  1  0  0  0
 28 29  1  0  0  0
 28 30  2  0  0  0
 29 31  1  0  0  0
 23 24  1  0  0  0
 23 25  1  0  0  0
 23 26  1  0  0  0
 11 12  2  0  0  0
 11 17  1  0  0  0
 12 13  1  0  0  0
 12 14  1  0  0  0
 14 15  2  0  0  0
 15 16  1  0  0  0
 16 17  2  0  0  0
 17 18  1  0  0  0
M  END
> <COMPND>
    ../0-casp/USpIc4.pdb 

> <AUTHOR>
    GENERATED BY OPEN BABEL 3.1.0

> <MASTER>
        0    0    0    0    0    0    0    0   49    0   49    0

> <minimizedAffinity>
-5.48493

> <CNNscore>
0.2624612749

> <CNNaffinity>
4.7137660980

> <CNN_VS>
1.2371810675

> <CNNaffinity_variance>
0.4706072807

$$$$
