


 33 35  0  0  0  0  0  0  0  0999 V2000
  -14.1261    3.0808  -17.0730 C   0  0  0  0  0  0  0  0  0  0  0  0
  -14.8438    2.2973  -17.7529 O   0  0  0  0  0  0  0  0  0  0  0  0
  -12.7992    3.4009  -17.5173 N   0  0  0  0  0  0  0  0  0  0  0  0
  -12.3253    4.2381  -17.1100 H   0  0  0  0  0  0  0  0  0  0  0  0
  -16.4426    5.2660  -16.8117 C   0  0  0  0  0  0  0  0  0  0  0  0
  -15.6672    4.6225  -15.7096 C   0  0  0  0  0  0  0  0  0  0  0  0
  -15.8292    4.9002  -14.4372 O   0  0  0  0  0  0  0  0  0  0  0  0
  -15.0210    4.2026  -13.6927 N   0  0  0  0  0  0  0  0  0  0  0  0
  -14.2913    3.4283  -14.5200 C   0  0  0  0  0  0  0  0  0  0  0  0
  -14.6695    3.6726  -15.8320 C   0  0  0  0  0  0  0  0  0  0  0  0
  -13.3019    2.4418  -14.0441 C   0  0  0  0  0  0  0  0  0  0  0  0
  -11.9839    2.8402  -13.7304 C   0  0  0  0  0  0  0  0  0  0  0  0
  -11.4294    4.4922  -13.9864 Cl  0  0  0  0  0  0  0  0  0  0  0  0
  -11.0699    1.9036  -13.2339 C   0  0  0  0  0  0  0  0  0  0  0  0
  -11.4514    0.5741  -13.0556 C   0  0  0  0  0  0  0  0  0  0  0  0
  -12.7468    0.1674  -13.3774 C   0  0  0  0  0  0  0  0  0  0  0  0
  -13.6744    1.0918  -13.8740 C   0  0  0  0  0  0  0  0  0  0  0  0
  -15.3076    0.5350  -14.2233 Cl  0  0  0  0  0  0  0  0  0  0  0  0
  -12.1166    2.6279  -18.5597 C   0  0  0  0  0  0  0  0  0  0  0  0
  -12.1565    3.3790  -19.9079 C   0  0  0  0  0  0  0  0  0  0  0  0
  -13.3702    3.0181  -20.6527 N   0  0  0  0  0  0  0  0  0  0  0  0
  -13.0258    1.9537  -21.5962 C   0  0  0  0  0  0  0  0  0  0  0  0
  -11.6683    2.2874  -22.2485 C   0  0  0  0  0  0  0  0  0  0  0  0
  -11.7616    3.3311  -23.3794 C   0  0  0  0  0  0  0  0  0  0  0  0
  -10.9782    1.0162  -22.7710 C   0  0  0  0  0  0  0  0  0  0  0  0
  -10.6690    2.9964  -20.9092 S   0  0  0  0  0  0  0  0  0  0  0  0
  -13.6848    3.8645  -21.1829 H   0  0  0  0  0  0  0  0  0  0  0  0
  -14.1512    1.6990  -22.5759 C   0  0  0  0  0  0  0  0  0  0  0  0
  -15.0885    2.6918  -22.8488 O   0  0  0  0  0  0  0  0  0  0  0  0
  -14.2446    0.5920  -23.1690 O   0  0  0  0  0  0  0  0  0  0  0  0
  -15.0555    3.5931  -22.3883 H   0  0  0  0  0  0  0  0  0  0  0  0
  -10.6922    2.3888  -18.1359 C   0  0  0  0  0  0  0  0  0  0  0  0
  -10.3989    2.3385  -16.9524 O   0  0  0  0  0  0  0  0  0  0  0  0
  1 10  1  0  0  0
  1  2  2  0  0  0
  1  3  1  0  0  0
  3 19  1  0  0  0
  3  4  1  0  0  0
  5  6  1  0  0  0
  6  7  1  0  0  0
  6 10  2  0  0  0
  7  8  1  0  0  0
  8  9  2  0  0  0
  9 10  1  0  0  0
  9 11  1  0  0  0
 11 12  2  0  0  0
 11 17  1  0  0  0
 12 13  1  0  0  0
 12 14  1  0  0  0
 14 15  2  0  0  0
 15 16  1  0  0  0
 16 17  2  0  0  0
 17 18  1  0  0  0
 19 32  1  0  0  0
 19 20  1  0  0  0
 20 21  1  0  0  0
 20 26  1  0  0  0
 21 22  1  0  0  0
 21 27  1  0  0  0
 22 28  1  0  0  0
 22 23  1  0  0  0
 23 24  1  0  0  0
 23 25  1  0  0  0
 23 26  1  0  0  0
 28 29  1  0  0  0
 28 30  2  0  0  0
 29 31  1  0  0  0
 32 33  2  0  0  0
M  END
> <COMPND>
../0-casp/USpIc4.pdb

> <AUTHOR>
GENERATED BY OPEN BABEL 3.1.0

> <MASTER>
        0    0    0    0    0    0    0    0   33    0   33    0

> <minimizedAffinity>
-5.47216

> <CNNscore>
0.5097452998

> <CNNaffinity>
4.8437604904

> <CNN_VS>
2.4690840244

> <CNNaffinity_variance>
0.3688521981

$$$$



 33 35  0  0  0  0  0  0  0  0999 V2000
  -12.1339    1.6884  -16.3740 C   0  0  0  0  0  0  0  0  0  0  0  0
  -11.1794    1.2927  -17.0977 O   0  0  0  0  0  0  0  0  0  0  0  0
  -12.8475    2.8837  -16.7239 N   0  0  0  0  0  0  0  0  0  0  0  0
  -13.7832    3.0509  -16.2902 H   0  0  0  0  0  0  0  0  0  0  0  0
  -11.5370    2.3874  -13.3139 C   0  0  0  0  0  0  0  0  0  0  0  0
  -12.2565    1.1952  -13.8537 C   0  0  0  0  0  0  0  0  0  0  0  0
  -12.7379    0.2277  -13.1091 O   0  0  0  0  0  0  0  0  0  0  0  0
  -13.3089   -0.6899  -13.8345 N   0  0  0  0  0  0  0  0  0  0  0  0
  -13.1952   -0.3038  -15.1209 C   0  0  0  0  0  0  0  0  0  0  0  0
  -12.5154    0.9039  -15.1805 C   0  0  0  0  0  0  0  0  0  0  0  0
  -13.7809   -1.0563  -16.2475 C   0  0  0  0  0  0  0  0  0  0  0  0
  -15.0056   -0.6516  -16.8222 C   0  0  0  0  0  0  0  0  0  0  0  0
  -15.9379    0.6914  -16.1668 Cl  0  0  0  0  0  0  0  0  0  0  0  0
  -15.5253   -1.3452  -17.9212 C   0  0  0  0  0  0  0  0  0  0  0  0
  -14.8435   -2.4422  -18.4474 C   0  0  0  0  0  0  0  0  0  0  0  0
  -13.6405   -2.8594  -17.8767 C   0  0  0  0  0  0  0  0  0  0  0  0
  -13.1058   -2.1758  -16.7775 C   0  0  0  0  0  0  0  0  0  0  0  0
  -11.5638   -2.7176  -16.1231 Cl  0  0  0  0  0  0  0  0  0  0  0  0
  -12.3328    3.8413  -17.7078 C   0  0  0  0  0  0  0  0  0  0  0  0
  -13.1126    3.7290  -19.0355 C   0  0  0  0  0  0  0  0  0  0  0  0
  -13.4208    2.3219  -19.3240 N   0  0  0  0  0  0  0  0  0  0  0  0
  -12.3930    1.8071  -20.2297 C   0  0  0  0  0  0  0  0  0  0  0  0
  -12.0972    2.8739  -21.3041 C   0  0  0  0  0  0  0  0  0  0  0  0
  -13.1433    2.9236  -22.4355 C   0  0  0  0  0  0  0  0  0  0  0  0
  -10.6937    2.6818  -21.9028 C   0  0  0  0  0  0  0  0  0  0  0  0
  -12.1517    4.4566  -20.4171 S   0  0  0  0  0  0  0  0  0  0  0  0
  -14.3526    2.2888  -19.8007 H   0  0  0  0  0  0  0  0  0  0  0  0
  -12.7707    0.4474  -20.7775 C   0  0  0  0  0  0  0  0  0  0  0  0
  -11.7883   -0.4309  -21.2269 O   0  0  0  0  0  0  0  0  0  0  0  0
  -13.9766    0.0870  -20.8184 O   0  0  0  0  0  0  0  0  0  0  0  0
  -10.8077   -0.1782  -21.2197 H   0  0  0  0  0  0  0  0  0  0  0  0
  -12.4550    5.2321  -17.1453 C   0  0  0  0  0  0  0  0  0  0  0  0
  -12.3817    5.4215  -15.9420 O   0  0  0  0  0  0  0  0  0  0  0  0
  1 10  1  0  0  0
  1  2  2  0  0  0
  1  3  1  0  0  0
  3 19  1  0  0  0
  3  4  1  0  0  0
  5  6  1  0  0  0
  6  7  1  0  0  0
  6 10  2  0  0  0
  7  8  1  0  0  0
  8  9  2  0  0  0
  9 10  1  0  0  0
  9 11  1  0  0  0
 11 12  2  0  0  0
 11 17  1  0  0  0
 12 13  1  0  0  0
 12 14  1  0  0  0
 14 15  2  0  0  0
 15 16  1  0  0  0
 16 17  2  0  0  0
 17 18  1  0  0  0
 19 32  1  0  0  0
 19 20  1  0  0  0
 20 21  1  0  0  0
 20 26  1  0  0  0
 21 22  1  0  0  0
 21 27  1  0  0  0
 22 28  1  0  0  0
 22 23  1  0  0  0
 23 24  1  0  0  0
 23 25  1  0  0  0
 23 26  1  0  0  0
 28 29  1  0  0  0
 28 30  2  0  0  0
 29 31  1  0  0  0
 32 33  2  0  0  0
M  END
> <COMPND>
../0-casp/USpIc4.pdb

> <AUTHOR>
GENERATED BY OPEN BABEL 3.1.0

> <MASTER>
        0    0    0    0    0    0    0    0   33    0   33    0

> <minimizedAffinity>
-5.53799

> <CNNscore>
0.3814487457

> <CNNaffinity>
4.7920665741

> <CNN_VS>
1.8279278278

> <CNNaffinity_variance>
0.4460113049

$$$$



 33 35  0  0  0  0  0  0  0  0999 V2000
  -11.9159    1.3103  -16.8299 C   0  0  0  0  0  0  0  0  0  0  0  0
  -10.6854    1.4049  -17.0912 O   0  0  0  0  0  0  0  0  0  0  0  0
  -12.8853    1.7902  -17.7736 N   0  0  0  0  0  0  0  0  0  0  0  0
  -13.8750    1.4696  -17.6784 H   0  0  0  0  0  0  0  0  0  0  0  0
  -11.8423   -1.7887  -16.0552 C   0  0  0  0  0  0  0  0  0  0  0  0
  -12.3211   -0.6498  -15.2162 C   0  0  0  0  0  0  0  0  0  0  0  0
  -12.8157   -0.7837  -14.0080 O   0  0  0  0  0  0  0  0  0  0  0  0
  -13.1623    0.3665  -13.5071 N   0  0  0  0  0  0  0  0  0  0  0  0
  -12.8809    1.3024  -14.4353 C   0  0  0  0  0  0  0  0  0  0  0  0
  -12.3437    0.6900  -15.5581 C   0  0  0  0  0  0  0  0  0  0  0  0
  -13.0738    2.7486  -14.2122 C   0  0  0  0  0  0  0  0  0  0  0  0
  -14.3706    3.3075  -14.2036 C   0  0  0  0  0  0  0  0  0  0  0  0
  -15.7991    2.3398  -14.5576 Cl  0  0  0  0  0  0  0  0  0  0  0  0
  -14.5422    4.6718  -13.9426 C   0  0  0  0  0  0  0  0  0  0  0  0
  -13.4366    5.4863  -13.6996 C   0  0  0  0  0  0  0  0  0  0  0  0
  -12.1500    4.9466  -13.7213 C   0  0  0  0  0  0  0  0  0  0  0  0
  -11.9605    3.5832  -13.9795 C   0  0  0  0  0  0  0  0  0  0  0  0
  -10.3198    2.9454  -13.9526 Cl  0  0  0  0  0  0  0  0  0  0  0  0
  -12.5200    2.6643  -18.8928 C   0  0  0  0  0  0  0  0  0  0  0  0
  -13.2653    2.2431  -20.1774 C   0  0  0  0  0  0  0  0  0  0  0  0
  -12.7018    0.9921  -20.7024 N   0  0  0  0  0  0  0  0  0  0  0  0
  -11.7248    1.3318  -21.7376 C   0  0  0  0  0  0  0  0  0  0  0  0
  -12.3006    2.4644  -22.6125 C   0  0  0  0  0  0  0  0  0  0  0  0
  -13.3222    1.9817  -23.6614 C   0  0  0  0  0  0  0  0  0  0  0  0
  -11.1774    3.2531  -23.3063 C   0  0  0  0  0  0  0  0  0  0  0  0
  -13.1627    3.5595  -21.4495 S   0  0  0  0  0  0  0  0  0  0  0  0
  -13.4840    0.4422  -21.1294 H   0  0  0  0  0  0  0  0  0  0  0  0
  -11.2839    0.1036  -22.5049 C   0  0  0  0  0  0  0  0  0  0  0  0
  -11.9300   -1.1155  -22.3184 O   0  0  0  0  0  0  0  0  0  0  0  0
  -10.3381    0.1727  -23.3336 O   0  0  0  0  0  0  0  0  0  0  0  0
  -12.6893   -1.2173  -21.6562 H   0  0  0  0  0  0  0  0  0  0  0  0
  -12.8601    4.0857  -18.5328 C   0  0  0  0  0  0  0  0  0  0  0  0
  -12.8022    4.4612  -17.3731 O   0  0  0  0  0  0  0  0  0  0  0  0
  1 10  1  0  0  0
  1  2  2  0  0  0
  1  3  1  0  0  0
  3 19  1  0  0  0
  3  4  1  0  0  0
  5  6  1  0  0  0
  6  7  1  0  0  0
  6 10  2  0  0  0
  7  8  1  0  0  0
  8  9  2  0  0  0
  9 10  1  0  0  0
  9 11  1  0  0  0
 11 12  2  0  0  0
 11 17  1  0  0  0
 12 13  1  0  0  0
 12 14  1  0  0  0
 14 15  2  0  0  0
 15 16  1  0  0  0
 16 17  2  0  0  0
 17 18  1  0  0  0
 19 32  1  0  0  0
 19 20  1  0  0  0
 20 21  1  0  0  0
 20 26  1  0  0  0
 21 22  1  0  0  0
 21 27  1  0  0  0
 22 28  1  0  0  0
 22 23  1  0  0  0
 23 24  1  0  0  0
 23 25  1  0  0  0
 23 26  1  0  0  0
 28 29  1  0  0  0
 28 30  2  0  0  0
 29 31  1  0  0  0
 32 33  2  0  0  0
M  END
> <COMPND>
../0-casp/USpIc4.pdb

> <AUTHOR>
GENERATED BY OPEN BABEL 3.1.0

> <MASTER>
        0    0    0    0    0    0    0    0   33    0   33    0

> <minimizedAffinity>
-6.09938

> <CNNscore>
0.3780410886

> <CNNaffinity>
4.5833845139

> <CNN_VS>
1.7327076197

> <CNNaffinity_variance>
0.5551077724

$$$$



 33 35  0  0  0  0  0  0  0  0999 V2000
  -12.8745    3.7952  -16.9337 C   0  0  0  0  0  0  0  0  0  0  0  0
  -13.7437    4.1368  -17.7816 O   0  0  0  0  0  0  0  0  0  0  0  0
  -11.9251    2.7687  -17.2581 N   0  0  0  0  0  0  0  0  0  0  0  0
  -11.0623    2.6850  -16.6749 H   0  0  0  0  0  0  0  0  0  0  0  0
  -12.2086    6.8636  -16.3413 C   0  0  0  0  0  0  0  0  0  0  0  0
  -12.5433    5.7955  -15.3527 C   0  0  0  0  0  0  0  0  0  0  0  0
  -12.5872    5.9829  -14.0545 O   0  0  0  0  0  0  0  0  0  0  0  0
  -12.8955    4.8851  -13.4269 N   0  0  0  0  0  0  0  0  0  0  0  0
  -13.0616    3.9288  -14.3622 C   0  0  0  0  0  0  0  0  0  0  0  0
  -12.8360    4.4705  -15.6191 C   0  0  0  0  0  0  0  0  0  0  0  0
  -13.4836    2.5504  -14.0455 C   0  0  0  0  0  0  0  0  0  0  0  0
  -12.5376    1.5862  -13.6337 C   0  0  0  0  0  0  0  0  0  0  0  0
  -10.8139    1.9441  -13.5775 Cl  0  0  0  0  0  0  0  0  0  0  0  0
  -12.9583    0.2963  -13.2898 C   0  0  0  0  0  0  0  0  0  0  0  0
  -14.3084   -0.0458  -13.3607 C   0  0  0  0  0  0  0  0  0  0  0  0
  -15.2488    0.8953  -13.7815 C   0  0  0  0  0  0  0  0  0  0  0  0
  -14.8452    2.1908  -14.1280 C   0  0  0  0  0  0  0  0  0  0  0  0
  -16.0777    3.3515  -14.6109 Cl  0  0  0  0  0  0  0  0  0  0  0  0
  -12.1002    1.8781  -18.4097 C   0  0  0  0  0  0  0  0  0  0  0  0
  -11.1396    2.2713  -19.5524 C   0  0  0  0  0  0  0  0  0  0  0  0
  -11.1703    3.7250  -19.7618 N   0  0  0  0  0  0  0  0  0  0  0  0
  -12.1051    4.0085  -20.8515 C   0  0  0  0  0  0  0  0  0  0  0  0
  -11.8926    2.9697  -21.9720 C   0  0  0  0  0  0  0  0  0  0  0  0
  -10.6747    3.2642  -22.8702 C   0  0  0  0  0  0  0  0  0  0  0  0
  -13.1545    2.8253  -22.8392 C   0  0  0  0  0  0  0  0  0  0  0  0
  -11.5871    1.4045  -21.1049 S   0  0  0  0  0  0  0  0  0  0  0  0
  -10.2081    4.0294  -20.0410 H   0  0  0  0  0  0  0  0  0  0  0  0
  -12.0078    5.4506  -21.3012 C   0  0  0  0  0  0  0  0  0  0  0  0
  -10.9711    6.2630  -20.8496 O   0  0  0  0  0  0  0  0  0  0  0  0
  -12.8535    5.9292  -22.1022 O   0  0  0  0  0  0  0  0  0  0  0  0
  -10.2748    5.9213  -20.1986 H   0  0  0  0  0  0  0  0  0  0  0  0
  -11.8424    0.4606  -17.9739 C   0  0  0  0  0  0  0  0  0  0  0  0
  -11.8273    0.1706  -16.7886 O   0  0  0  0  0  0  0  0  0  0  0  0
  1 10  1  0  0  0
  1  2  2  0  0  0
  1  3  1  0  0  0
  3 19  1  0  0  0
  3  4  1  0  0  0
  5  6  1  0  0  0
  6  7  1  0  0  0
  6 10  2  0  0  0
  7  8  1  0  0  0
  8  9  2  0  0  0
  9 10  1  0  0  0
  9 11  1  0  0  0
 11 12  2  0  0  0
 11 17  1  0  0  0
 12 13  1  0  0  0
 12 14  1  0  0  0
 14 15  2  0  0  0
 15 16  1  0  0  0
 16 17  2  0  0  0
 17 18  1  0  0  0
 19 32  1  0  0  0
 19 20  1  0  0  0
 20 21  1  0  0  0
 20 26  1  0  0  0
 21 22  1  0  0  0
 21 27  1  0  0  0
 22 28  1  0  0  0
 22 23  1  0  0  0
 23 24  1  0  0  0
 23 25  1  0  0  0
 23 26  1  0  0  0
 28 29  1  0  0  0
 28 30  2  0  0  0
 29 31  1  0  0  0
 32 33  2  0  0  0
M  END
> <COMPND>
../0-casp/USpIc4.pdb

> <AUTHOR>
GENERATED BY OPEN BABEL 3.1.0

> <MASTER>
        0    0    0    0    0    0    0    0   33    0   33    0

> <minimizedAffinity>
-6.00380

> <CNNscore>
0.3739898503

> <CNNaffinity>
4.8848786354

> <CNN_VS>
1.8268949986

> <CNNaffinity_variance>
0.5487569571

$$$$



 33 35  0  0  0  0  0  0  0  0999 V2000
  -12.0381    1.3353  -16.7332 C   0  0  0  0  0  0  0  0  0  0  0  0
  -10.8217    1.5209  -17.0107 O   0  0  0  0  0  0  0  0  0  0  0  0
  -13.0510    1.7014  -17.6821 N   0  0  0  0  0  0  0  0  0  0  0  0
  -14.0104    1.3045  -17.5655 H   0  0  0  0  0  0  0  0  0  0  0  0
  -11.9540   -1.7598  -15.9440 C   0  0  0  0  0  0  0  0  0  0  0  0
  -12.3760   -0.6112  -15.0878 C   0  0  0  0  0  0  0  0  0  0  0  0
  -12.8067   -0.7331  -13.8541 O   0  0  0  0  0  0  0  0  0  0  0  0
  -13.1147    0.4235  -13.3427 N   0  0  0  0  0  0  0  0  0  0  0  0
  -12.8740    1.3510  -14.2905 C   0  0  0  0  0  0  0  0  0  0  0  0
  -12.4036    0.7267  -15.4364 C   0  0  0  0  0  0  0  0  0  0  0  0
  -13.0405    2.8004  -14.0666 C   0  0  0  0  0  0  0  0  0  0  0  0
  -11.9135    3.6397  -13.9263 C   0  0  0  0  0  0  0  0  0  0  0  0
  -10.2745    2.9949  -13.9069 Cl  0  0  0  0  0  0  0  0  0  0  0  0
  -12.0850    5.0191  -13.7630 C   0  0  0  0  0  0  0  0  0  0  0  0
  -13.3659    5.5698  -13.7286 C   0  0  0  0  0  0  0  0  0  0  0  0
  -14.4861    4.7469  -13.8507 C   0  0  0  0  0  0  0  0  0  0  0  0
  -14.3324    3.3647  -14.0161 C   0  0  0  0  0  0  0  0  0  0  0  0
  -15.7777    2.3779  -14.2084 Cl  0  0  0  0  0  0  0  0  0  0  0  0
  -12.7676    2.5629  -18.8343 C   0  0  0  0  0  0  0  0  0  0  0  0
  -13.1563    1.8561  -20.1506 C   0  0  0  0  0  0  0  0  0  0  0  0
  -11.9642    1.6439  -20.9823 N   0  0  0  0  0  0  0  0  0  0  0  0
  -11.8796    2.7423  -21.9457 C   0  0  0  0  0  0  0  0  0  0  0  0
  -13.2907    3.0278  -22.4996 C   0  0  0  0  0  0  0  0  0  0  0  0
  -13.7428    2.0366  -23.5905 C   0  0  0  0  0  0  0  0  0  0  0  0
  -13.3960    4.4674  -23.0303 C   0  0  0  0  0  0  0  0  0  0  0  0
  -14.3983    2.8393  -21.0739 S   0  0  0  0  0  0  0  0  0  0  0  0
  -12.0881    0.7397  -21.4959 H   0  0  0  0  0  0  0  0  0  0  0  0
  -10.8300    2.4706  -23.0020 C   0  0  0  0  0  0  0  0  0  0  0  0
  -10.3281    1.1848  -23.1849 O   0  0  0  0  0  0  0  0  0  0  0  0
  -10.4094    3.4005  -23.7397 O   0  0  0  0  0  0  0  0  0  0  0  0
  -10.6323    0.4099  -22.6083 H   0  0  0  0  0  0  0  0  0  0  0  0
  -13.5367    3.8480  -18.6835 C   0  0  0  0  0  0  0  0  0  0  0  0
  -13.6671    4.3660  -17.5863 O   0  0  0  0  0  0  0  0  0  0  0  0
  1 10  1  0  0  0
  1  2  2  0  0  0
  1  3  1  0  0  0
  3 19  1  0  0  0
  3  4  1  0  0  0
  5  6  1  0  0  0
  6  7  1  0  0  0
  6 10  2  0  0  0
  7  8  1  0  0  0
  8  9  2  0  0  0
  9 10  1  0  0  0
  9 11  1  0  0  0
 11 12  2  0  0  0
 11 17  1  0  0  0
 12 13  1  0  0  0
 12 14  1  0  0  0
 14 15  2  0  0  0
 15 16  1  0  0  0
 16 17  2  0  0  0
 17 18  1  0  0  0
 19 32  1  0  0  0
 19 20  1  0  0  0
 20 21  1  0  0  0
 20 26  1  0  0  0
 21 22  1  0  0  0
 21 27  1  0  0  0
 22 28  1  0  0  0
 22 23  1  0  0  0
 23 24  1  0  0  0
 23 25  1  0  0  0
 23 26  1  0  0  0
 28 29  1  0  0  0
 28 30  2  0  0  0
 29 31  1  0  0  0
 32 33  2  0  0  0
M  END
> <COMPND>
../0-casp/USpIc4.pdb

> <AUTHOR>
GENERATED BY OPEN BABEL 3.1.0

> <MASTER>
        0    0    0    0    0    0    0    0   33    0   33    0

> <minimizedAffinity>
-6.20470

> <CNNscore>
0.3277035356

> <CNNaffinity>
4.6692276001

> <CNN_VS>
1.5301223993

> <CNNaffinity_variance>
0.3475179672

$$$$



 33 35  0  0  0  0  0  0  0  0999 V2000
  -11.6243    1.9633  -16.7805 C   0  0  0  0  0  0  0  0  0  0  0  0
  -10.4432    1.6040  -16.5212 O   0  0  0  0  0  0  0  0  0  0  0  0
  -12.2958    2.8892  -15.9131 N   0  0  0  0  0  0  0  0  0  0  0  0
  -13.1458    3.3805  -16.2703 H   0  0  0  0  0  0  0  0  0  0  0  0
  -11.0238    2.7142  -19.8276 C   0  0  0  0  0  0  0  0  0  0  0  0
  -12.0478    1.7592  -19.3082 C   0  0  0  0  0  0  0  0  0  0  0  0
  -12.8845    1.0930  -20.0687 O   0  0  0  0  0  0  0  0  0  0  0  0
  -13.6732    0.3389  -19.3591 N   0  0  0  0  0  0  0  0  0  0  0  0
  -13.3362    0.5210  -18.0668 C   0  0  0  0  0  0  0  0  0  0  0  0
  -12.2967    1.4360  -17.9868 C   0  0  0  0  0  0  0  0  0  0  0  0
  -13.9657   -0.2161  -16.9537 C   0  0  0  0  0  0  0  0  0  0  0  0
  -15.0283    0.3579  -16.2220 C   0  0  0  0  0  0  0  0  0  0  0  0
  -15.5814    2.0022  -16.5267 Cl  0  0  0  0  0  0  0  0  0  0  0  0
  -15.6482   -0.3714  -15.2008 C   0  0  0  0  0  0  0  0  0  0  0  0
  -15.2153   -1.6613  -14.8947 C   0  0  0  0  0  0  0  0  0  0  0  0
  -14.1558   -2.2313  -15.6016 C   0  0  0  0  0  0  0  0  0  0  0  0
  -13.5253   -1.5159  -16.6274 C   0  0  0  0  0  0  0  0  0  0  0  0
  -12.2222   -2.2982  -17.5160 Cl  0  0  0  0  0  0  0  0  0  0  0  0
  -11.7954    3.2071  -14.5720 C   0  0  0  0  0  0  0  0  0  0  0  0
  -12.3007    4.5931  -14.1173 C   0  0  0  0  0  0  0  0  0  0  0  0
  -13.4973    4.4453  -13.2780 N   0  0  0  0  0  0  0  0  0  0  0  0
  -14.6749    4.6258  -14.1279 C   0  0  0  0  0  0  0  0  0  0  0  0
  -14.4208    5.8086  -15.0850 C   0  0  0  0  0  0  0  0  0  0  0  0
  -14.6165    7.1909  -14.4309 C   0  0  0  0  0  0  0  0  0  0  0  0
  -15.2988    5.7007  -16.3431 C   0  0  0  0  0  0  0  0  0  0  0  0
  -12.6768    5.6545  -15.5643 S   0  0  0  0  0  0  0  0  0  0  0  0
  -13.4743    5.1987  -12.5510 H   0  0  0  0  0  0  0  0  0  0  0  0
  -15.9387    4.7417  -13.3028 C   0  0  0  0  0  0  0  0  0  0  0  0
  -17.1539    4.2825  -13.8037 O   0  0  0  0  0  0  0  0  0  0  0  0
  -15.9041    5.2397  -12.1466 O   0  0  0  0  0  0  0  0  0  0  0  0
  -17.2281    3.8831  -14.7313 H   0  0  0  0  0  0  0  0  0  0  0  0
  -12.2567    2.1418  -13.6139 C   0  0  0  0  0  0  0  0  0  0  0  0
  -11.5146    1.7378  -12.7334 O   0  0  0  0  0  0  0  0  0  0  0  0
  1 10  1  0  0  0
  1  2  2  0  0  0
  1  3  1  0  0  0
  3 19  1  0  0  0
  3  4  1  0  0  0
  5  6  1  0  0  0
  6  7  1  0  0  0
  6 10  2  0  0  0
  7  8  1  0  0  0
  8  9  2  0  0  0
  9 10  1  0  0  0
  9 11  1  0  0  0
 11 12  2  0  0  0
 11 17  1  0  0  0
 12 13  1  0  0  0
 12 14  1  0  0  0
 14 15  2  0  0  0
 15 16  1  0  0  0
 16 17  2  0  0  0
 17 18  1  0  0  0
 19 32  1  0  0  0
 19 20  1  0  0  0
 20 21  1  0  0  0
 20 26  1  0  0  0
 21 22  1  0  0  0
 21 27  1  0  0  0
 22 28  1  0  0  0
 22 23  1  0  0  0
 23 24  1  0  0  0
 23 25  1  0  0  0
 23 26  1  0  0  0
 28 29  1  0  0  0
 28 30  2  0  0  0
 29 31  1  0  0  0
 32 33  2  0  0  0
M  END
> <COMPND>
../0-casp/USpIc4.pdb

> <AUTHOR>
GENERATED BY OPEN BABEL 3.1.0

> <MASTER>
        0    0    0    0    0    0    0    0   33    0   33    0

> <minimizedAffinity>
-6.11111

> <CNNscore>
0.3047176600

> <CNNaffinity>
4.9286894798

> <CNN_VS>
1.5018587112

> <CNNaffinity_variance>
0.3460339904

$$$$



 33 35  0  0  0  0  0  0  0  0999 V2000
  -10.9029    0.6749  -16.5389 C   0  0  0  0  0  0  0  0  0  0  0  0
  -10.0267    1.4918  -16.1437 O   0  0  0  0  0  0  0  0  0  0  0  0
  -11.9344    1.1126  -17.4361 N   0  0  0  0  0  0  0  0  0  0  0  0
  -12.4779    0.3910  -17.9611 H   0  0  0  0  0  0  0  0  0  0  0  0
   -8.4307   -1.3385  -16.7478 C   0  0  0  0  0  0  0  0  0  0  0  0
   -9.7827   -1.6104  -16.1747 C   0  0  0  0  0  0  0  0  0  0  0  0
  -10.1527   -2.7690  -15.6817 O   0  0  0  0  0  0  0  0  0  0  0  0
  -11.3828   -2.7329  -15.2574 N   0  0  0  0  0  0  0  0  0  0  0  0
  -11.8425   -1.4865  -15.4849 C   0  0  0  0  0  0  0  0  0  0  0  0
  -10.8454   -0.7303  -16.0833 C   0  0  0  0  0  0  0  0  0  0  0  0
  -13.1868   -1.0321  -15.0789 C   0  0  0  0  0  0  0  0  0  0  0  0
  -14.3267   -1.4047  -15.8245 C   0  0  0  0  0  0  0  0  0  0  0  0
  -14.1958   -2.3315  -17.3165 Cl  0  0  0  0  0  0  0  0  0  0  0  0
  -15.6000   -1.0072  -15.4006 C   0  0  0  0  0  0  0  0  0  0  0  0
  -15.7492   -0.2355  -14.2486 C   0  0  0  0  0  0  0  0  0  0  0  0
  -14.6277    0.1509  -13.5137 C   0  0  0  0  0  0  0  0  0  0  0  0
  -13.3464   -0.2394  -13.9229 C   0  0  0  0  0  0  0  0  0  0  0  0
  -11.9695    0.2390  -12.9357 Cl  0  0  0  0  0  0  0  0  0  0  0  0
  -12.2074    2.5325  -17.6797 C   0  0  0  0  0  0  0  0  0  0  0  0
  -12.0622    2.8646  -19.1803 C   0  0  0  0  0  0  0  0  0  0  0  0
  -11.4770    4.2015  -19.3485 N   0  0  0  0  0  0  0  0  0  0  0  0
  -12.5691    5.1548  -19.5490 C   0  0  0  0  0  0  0  0  0  0  0  0
  -13.6060    4.5294  -20.5047 C   0  0  0  0  0  0  0  0  0  0  0  0
  -13.2028    4.5989  -21.9912 C   0  0  0  0  0  0  0  0  0  0  0  0
  -14.9917    5.1680  -20.3123 C   0  0  0  0  0  0  0  0  0  0  0  0
  -13.6874    2.7807  -20.0248 S   0  0  0  0  0  0  0  0  0  0  0  0
  -10.8716    4.1816  -20.2027 H   0  0  0  0  0  0  0  0  0  0  0  0
  -12.0478    6.5085  -19.9816 C   0  0  0  0  0  0  0  0  0  0  0  0
  -10.7700    6.6344  -20.5198 O   0  0  0  0  0  0  0  0  0  0  0  0
  -12.7692    7.5353  -19.8754 O   0  0  0  0  0  0  0  0  0  0  0  0
  -10.1538    5.8364  -20.6152 H   0  0  0  0  0  0  0  0  0  0  0  0
  -13.6005    2.8497  -17.2060 C   0  0  0  0  0  0  0  0  0  0  0  0
  -14.1064    2.2095  -16.2986 O   0  0  0  0  0  0  0  0  0  0  0  0
  1 10  1  0  0  0
  1  2  2  0  0  0
  1  3  1  0  0  0
  3 19  1  0  0  0
  3  4  1  0  0  0
  5  6  1  0  0  0
  6  7  1  0  0  0
  6 10  2  0  0  0
  7  8  1  0  0  0
  8  9  2  0  0  0
  9 10  1  0  0  0
  9 11  1  0  0  0
 11 12  2  0  0  0
 11 17  1  0  0  0
 12 13  1  0  0  0
 12 14  1  0  0  0
 14 15  2  0  0  0
 15 16  1  0  0  0
 16 17  2  0  0  0
 17 18  1  0  0  0
 19 32  1  0  0  0
 19 20  1  0  0  0
 20 21  1  0  0  0
 20 26  1  0  0  0
 21 22  1  0  0  0
 21 27  1  0  0  0
 22 28  1  0  0  0
 22 23  1  0  0  0
 23 24  1  0  0  0
 23 25  1  0  0  0
 23 26  1  0  0  0
 28 29  1  0  0  0
 28 30  2  0  0  0
 29 31  1  0  0  0
 32 33  2  0  0  0
M  END
> <COMPND>
../0-casp/USpIc4.pdb

> <AUTHOR>
GENERATED BY OPEN BABEL 3.1.0

> <MASTER>
        0    0    0    0    0    0    0    0   33    0   33    0

> <minimizedAffinity>
-6.67853

> <CNNscore>
0.2728714049

> <CNNaffinity>
4.7600030899

> <CNN_VS>
1.2988687754

> <CNNaffinity_variance>
0.2585168481

$$$$



 33 35  0  0  0  0  0  0  0  0999 V2000
  -13.8406    3.9944  -16.5653 C   0  0  0  0  0  0  0  0  0  0  0  0
  -14.9582    3.4095  -16.5551 O   0  0  0  0  0  0  0  0  0  0  0  0
  -13.7072    5.2900  -15.9618 N   0  0  0  0  0  0  0  0  0  0  0  0
  -12.7486    5.6387  -15.7363 H   0  0  0  0  0  0  0  0  0  0  0  0
  -12.5069    4.6471  -19.3945 C   0  0  0  0  0  0  0  0  0  0  0  0
  -12.0964    3.5996  -18.4125 C   0  0  0  0  0  0  0  0  0  0  0  0
  -11.1053    2.7608  -18.6034 O   0  0  0  0  0  0  0  0  0  0  0  0
  -10.9691    1.9498  -17.5946 N   0  0  0  0  0  0  0  0  0  0  0  0
  -11.9206    2.2734  -16.6965 C   0  0  0  0  0  0  0  0  0  0  0  0
  -12.6766    3.3281  -17.1869 C   0  0  0  0  0  0  0  0  0  0  0  0
  -12.0502    1.6167  -15.3810 C   0  0  0  0  0  0  0  0  0  0  0  0
  -12.8502    0.4629  -15.2298 C   0  0  0  0  0  0  0  0  0  0  0  0
  -13.8054   -0.1834  -16.5611 Cl  0  0  0  0  0  0  0  0  0  0  0  0
  -12.9254   -0.1779  -13.9878 C   0  0  0  0  0  0  0  0  0  0  0  0
  -12.2205    0.3231  -12.8937 C   0  0  0  0  0  0  0  0  0  0  0  0
  -11.4397    1.4715  -13.0291 C   0  0  0  0  0  0  0  0  0  0  0  0
  -11.3522    2.1243  -14.2651 C   0  0  0  0  0  0  0  0  0  0  0  0
  -10.3190    3.5441  -14.3916 Cl  0  0  0  0  0  0  0  0  0  0  0  0
  -14.8699    6.1079  -15.6022 C   0  0  0  0  0  0  0  0  0  0  0  0
  -14.4731    7.2001  -14.5858 C   0  0  0  0  0  0  0  0  0  0  0  0
  -13.9741    8.3892  -15.2895 N   0  0  0  0  0  0  0  0  0  0  0  0
  -12.5131    8.3154  -15.3291 C   0  0  0  0  0  0  0  0  0  0  0  0
  -12.0019    7.8358  -13.9549 C   0  0  0  0  0  0  0  0  0  0  0  0
  -11.9689    8.9432  -12.8828 C   0  0  0  0  0  0  0  0  0  0  0  0
  -10.6118    7.1894  -14.0765 C   0  0  0  0  0  0  0  0  0  0  0  0
  -13.1971    6.5761  -13.4264 S   0  0  0  0  0  0  0  0  0  0  0  0
  -14.2650    9.2323  -14.7408 H   0  0  0  0  0  0  0  0  0  0  0  0
  -11.9074    9.6170  -15.8088 C   0  0  0  0  0  0  0  0  0  0  0  0
  -10.6204    9.6442  -16.3392 O   0  0  0  0  0  0  0  0  0  0  0  0
  -12.5657   10.6890  -15.7495 O   0  0  0  0  0  0  0  0  0  0  0  0
  -10.0532    8.8072  -16.3977 H   0  0  0  0  0  0  0  0  0  0  0  0
  -15.4309    6.7341  -16.8508 C   0  0  0  0  0  0  0  0  0  0  0  0
  -14.6998    7.0044  -17.7897 O   0  0  0  0  0  0  0  0  0  0  0  0
  1 10  1  0  0  0
  1  2  2  0  0  0
  1  3  1  0  0  0
  3 19  1  0  0  0
  3  4  1  0  0  0
  5  6  1  0  0  0
  6  7  1  0  0  0
  6 10  2  0  0  0
  7  8  1  0  0  0
  8  9  2  0  0  0
  9 10  1  0  0  0
  9 11  1  0  0  0
 11 12  2  0  0  0
 11 17  1  0  0  0
 12 13  1  0  0  0
 12 14  1  0  0  0
 14 15  2  0  0  0
 15 16  1  0  0  0
 16 17  2  0  0  0
 17 18  1  0  0  0
 19 32  1  0  0  0
 19 20  1  0  0  0
 20 21  1  0  0  0
 20 26  1  0  0  0
 21 22  1  0  0  0
 21 27  1  0  0  0
 22 28  1  0  0  0
 22 23  1  0  0  0
 23 24  1  0  0  0
 23 25  1  0  0  0
 23 26  1  0  0  0
 28 29  1  0  0  0
 28 30  2  0  0  0
 29 31  1  0  0  0
 32 33  2  0  0  0
M  END
> <COMPND>
../0-casp/USpIc4.pdb

> <AUTHOR>
GENERATED BY OPEN BABEL 3.1.0

> <MASTER>
        0    0    0    0    0    0    0    0   33    0   33    0

> <minimizedAffinity>
-5.30239

> <CNNscore>
0.2707050443

> <CNNaffinity>
4.9028644562

> <CNN_VS>
1.3272300959

> <CNNaffinity_variance>
0.3345902264

$$$$



 33 35  0  0  0  0  0  0  0  0999 V2000
  -12.2380    1.1221  -16.9938 C   0  0  0  0  0  0  0  0  0  0  0  0
  -11.0600    1.3830  -17.3619 O   0  0  0  0  0  0  0  0  0  0  0  0
  -13.3383    1.3945  -17.8746 N   0  0  0  0  0  0  0  0  0  0  0  0
  -14.2571    0.9364  -17.6812 H   0  0  0  0  0  0  0  0  0  0  0  0
  -11.9308   -1.9477  -16.1624 C   0  0  0  0  0  0  0  0  0  0  0  0
  -12.3433   -0.8045  -15.2946 C   0  0  0  0  0  0  0  0  0  0  0  0
  -12.6685   -0.9224  -14.0286 O   0  0  0  0  0  0  0  0  0  0  0  0
  -12.9952    0.2274  -13.5136 N   0  0  0  0  0  0  0  0  0  0  0  0
  -12.8786    1.1462  -14.4929 C   0  0  0  0  0  0  0  0  0  0  0  0
  -12.4680    0.5228  -15.6621 C   0  0  0  0  0  0  0  0  0  0  0  0
  -13.1022    2.5896  -14.2806 C   0  0  0  0  0  0  0  0  0  0  0  0
  -14.4125    3.1129  -14.2245 C   0  0  0  0  0  0  0  0  0  0  0  0
  -15.8271    2.1018  -14.5053 Cl  0  0  0  0  0  0  0  0  0  0  0  0
  -14.6110    4.4757  -13.9742 C   0  0  0  0  0  0  0  0  0  0  0  0
  -13.5193    5.3233  -13.7885 C   0  0  0  0  0  0  0  0  0  0  0  0
  -12.2202    4.8186  -13.8576 C   0  0  0  0  0  0  0  0  0  0  0  0
  -12.0038    3.4573  -14.1059 C   0  0  0  0  0  0  0  0  0  0  0  0
  -10.3462    2.8650  -14.1400 Cl  0  0  0  0  0  0  0  0  0  0  0  0
  -13.1973    2.2442  -19.0613 C   0  0  0  0  0  0  0  0  0  0  0  0
  -12.4540    3.5507  -18.7096 C   0  0  0  0  0  0  0  0  0  0  0  0
  -13.3225    4.4288  -17.9143 N   0  0  0  0  0  0  0  0  0  0  0  0
  -13.9570    5.3853  -18.8221 C   0  0  0  0  0  0  0  0  0  0  0  0
  -12.9051    5.8829  -19.8348 C   0  0  0  0  0  0  0  0  0  0  0  0
  -11.9619    6.9643  -19.2709 C   0  0  0  0  0  0  0  0  0  0  0  0
  -13.5745    6.3971  -21.1204 C   0  0  0  0  0  0  0  0  0  0  0  0
  -11.9090    4.4179  -20.2304 S   0  0  0  0  0  0  0  0  0  0  0  0
  -12.7186    4.9449  -17.2320 H   0  0  0  0  0  0  0  0  0  0  0  0
  -14.6673    6.4830  -18.0591 C   0  0  0  0  0  0  0  0  0  0  0  0
  -14.2331    6.8559  -16.7899 O   0  0  0  0  0  0  0  0  0  0  0  0
  -15.6494    7.0839  -18.5692 O   0  0  0  0  0  0  0  0  0  0  0  0
  -13.4530    6.3935  -16.3393 H   0  0  0  0  0  0  0  0  0  0  0  0
  -12.4452    1.4829  -20.1198 C   0  0  0  0  0  0  0  0  0  0  0  0
  -12.5941    0.2776  -20.2387 O   0  0  0  0  0  0  0  0  0  0  0  0
  1 10  1  0  0  0
  1  2  2  0  0  0
  1  3  1  0  0  0
  3 19  1  0  0  0
  3  4  1  0  0  0
  5  6  1  0  0  0
  6  7  1  0  0  0
  6 10  2  0  0  0
  7  8  1  0  0  0
  8  9  2  0  0  0
  9 10  1  0  0  0
  9 11  1  0  0  0
 11 12  2  0  0  0
 11 17  1  0  0  0
 12 13  1  0  0  0
 12 14  1  0  0  0
 14 15  2  0  0  0
 15 16  1  0  0  0
 16 17  2  0  0  0
 17 18  1  0  0  0
 19 32  1  0  0  0
 19 20  1  0  0  0
 20 21  1  0  0  0
 20 26  1  0  0  0
 21 22  1  0  0  0
 21 27  1  0  0  0
 22 28  1  0  0  0
 22 23  1  0  0  0
 23 24  1  0  0  0
 23 25  1  0  0  0
 23 26  1  0  0  0
 28 29  1  0  0  0
 28 30  2  0  0  0
 29 31  1  0  0  0
 32 33  2  0  0  0
M  END
> <COMPND>
../0-casp/USpIc4.pdb

> <AUTHOR>
GENERATED BY OPEN BABEL 3.1.0

> <MASTER>
        0    0    0    0    0    0    0    0   33    0   33    0

> <minimizedAffinity>
-5.68472

> <CNNscore>
0.2632836699

> <CNNaffinity>
4.5398502350

> <CNN_VS>
1.1952683926

> <CNNaffinity_variance>
0.6157995462

$$$$
